<?xml version='1.0' encoding='UTF-8'?>
<routes xmlns:xsi="http://www.w3.org/2001/XMLSchema-instance" xsi:noNamespaceSchemaLocation="http://sumo.dlr.de/xsd/routes_file.xsd">
  <route id="route394744908#1_to_7919287#2_0" edges="228373543#3 153341565#0 33854575#0 36819764"/>
  <route id="route394744908#1_to_44409754_0" edges="4934592 8111025"/>
  <route id="route394744908#1_to_44007601#0_0" edges="-4934444#0 -25466631#6 -25466631#3 -612719551#3 -563920576 4926189#0 4926189#9 4926209#0 36819763#0 44398171#0 4287295#0"/>
  <route id="route394744908#1_to_26452028#1_0" edges="4934444#6 129068838 370154352#0"/>
  <route id="route394744908#1_to_30999741#0_0" edges="-4934444#0 -25466631#6 -25466631#3 -612719551#3 -563920576 4926189#0 4926189#9 4926209#0 36819763#0"/>
  <route id="route394744908#1_to_-44436782#1_0" edges="4934592 8111025"/>
  <route id="route394744908#1_to_9084582_0" edges="4934444#6 129068838 370154352#0"/>
  <route id="route394744908#1_to_84017574_0" edges="4934444#6 4934446#0"/>
  <route id="route394744908#1_to_39371977_0" edges="4934592 8111025"/>
  <route id="route394744908#1_to_-7919287#5_0" edges="-4934444#0 -25466631#6 -25466631#3 -612719551#3"/>
  <route id="route394744908#1_to_-110403089#1_0" edges="4934592 8111025"/>
  <route id="route394744908#1_to_-22716631#2_0" edges="4934592 8111025"/>
  <route id="route394744908#1_to_317312609_0" edges="4934444#6 129068838 370154352#0"/>
  <route id="route394744908#1_to_128521424_0" edges="4934444#6 129068838 370154352#0"/>
  <route id="route394744908#1_to_-38864100#0_0" edges="-4934444#5"/>
  <route id="route394744908#1_to_6653000#5_0" edges="-4934444#0 -25466631#6 -25466631#3 -612719551#3 -563920576 4926189#0 4926189#9 4926209#0 36819763#0"/>
  <route id="route394744908#1_to_110403205#0_0" edges="4934592 8111025"/>
  <route id="route394744908#1_to_-13872818_0" edges="228373543#3"/>
  <route id="route394744908#1_to_116689248#2_0" edges="228373543#3 153341565#0 33854575#0 36819764"/>
  <route id="route394744908#1_to_-110403096_0" edges="4934592 8111025"/>
  <route id="route394744908#1_to_7919275#3_0" edges="-4934444#0 -25466631#6 -25466631#3 -612719551#3"/>
  <route id="route394744908#1_to_40070420#0_0" edges="13873181#0"/>
  <route id="route394744908#1_to_-110403094#0_0" edges="-4934444#0 -25466631#6 -25466631#3 -612719551#3"/>
  <route id="route394744908#1_to_22770494_0" edges="4934592 8111025"/>
  <route id="route394744908#1_to_38918794#0_0" edges="4934592 8111025"/>
  <route id="route394744908#1_to_109527590_0" edges="4934444#6 4934446#0"/>
  <route id="route394744908#1_to_238334895#0_0" edges="13873181#0 238334895#0"/>
  <route id="route394744908#1_to_-7919284#4_0" edges="-4934444#0 -25466631#6 -25466631#3 -612719551#3"/>
  <route id="route394744908#1_to_78628853_0" edges="4934592 8111025"/>
  <route id="route394744908#1_to_-57362816_0" edges="4934444#6 4934446#0"/>
  <route id="route394744908#1_to_110407380#0_0" edges="4934444#6 129068838 370154352#0"/>
  <route id="route394744908#1_to_32631306#0_0" edges="-4934444#0 -25466631#6 -25466631#3 -612719551#3 -563920576 4926189#0 4926189#9 4926209#0 36819763#0"/>
  <route id="route394744908#1_to_-26452028#2_0" edges="4934444#6 129068838 370154352#0"/>
  <route id="route394744908#1_to_22770490#2_0" edges="4934592 8111025"/>
  <route id="route394744908#1_to_44409759#0_0" edges="-4934444#0 -25466631#6 -25466631#3 -612719551#3"/>
  <route id="route394744908#1_to_-156375816#4_0" edges="4934592 8111025"/>
  <route id="route394744908#1_to_8568389#0_0" edges="228373543#3 153341565#0 33854575#0 36819764"/>
  <route id="route394744908#1_to_-302902115_0" edges="228373543#3 153341565#0 33854575#0 36819764"/>
  <route id="route394744908#1_to_-561862256_0" edges="4934592 8111025"/>
  <route id="route394744908#1_to_368646813#1_0" edges="-4934444#0 -25466631#6 -25466631#3 -612719551#3 -563920576 4926189#0 4926189#9 4926209#0 36819763#0 44398171#0 4287295#0"/>
  <route id="route394744908#1_to_153341564#0_0" edges="228373543#3"/>
  <route id="route394744908#1_to_32631503#0_0" edges="228373543#3 153341565#0 33854575#0"/>
  <route id="route394744908#1_to_-38864101_0" edges="-4934444#5"/>
  <route id="route394744908#1_to_7919284#6_0" edges="-4934444#0 -25466631#6 -25466631#3 -612719551#3"/>
  <route id="route394744908#1_to_-360342135#0_0" edges="4934444#6 129068838 370154352#0"/>
  <route id="route394744908#1_to_7977023#0_0" edges="228373543#3 153341565#0 33854575#0 36819764"/>
  <route id="route394744908#1_to_317312606_0" edges="4934592 8111025"/>
  <route id="route394744908#1_to_612719551#0_0" edges="228373543#3 153341565#0 -4926189#10 -4926189#8 2294451 612719551#0"/>
  <route id="route394744908#1_to_561862252#3_0" edges="4934592 8111025"/>
  <route id="route394744908#1_to_-44402154#3_0" edges="-4934444#0 -25466631#6 -25466631#3 -612719551#3 -563920576 4926189#0 4926189#9 4926209#0 36819763#0"/>
  <route id="route394744908#1_to_110403094#1_0" edges="-4934444#0 -25466631#6 -25466631#3 -612719551#3"/>
  <route id="route-129217471#2_to_26452027#0_0" edges="4934592 4934444#0 4934444#2 4934444#3"/>
  <route id="route-129217471#2_to_153341565#0_0" edges="228373543#3 153341565#0"/>
  <route id="route-129217471#2_to_13873188#0_0" edges="228373543#3"/>
  <route id="route-129217471#2_to_-110403096_0" edges="4934592 8111025"/>
  <route id="route-129217471#2_to_-10575471#0_0" edges="-4934446#6 -10575471#2"/>
  <route id="route-129217471#2_to_-7919286#1_0" edges="4934592 8111025"/>
  <route id="route-129217471#2_to_4934446#2_0" edges="4934444#6 4934446#0 4934446#2"/>
  <route id="route-129217471#2_to_22716630#0_0" edges="4934592 8111025"/>
  <route id="route-129217471#2_to_370154352#0_0" edges="4934444#6 129068838 370154352#0"/>
  <route id="route-129217471#2_to_7919275#1_0" edges="4934592 8111025"/>
  <route id="route-129217471#2_to_-26452026#1_0" edges="4934592 4934444#0 4934444#2 4934444#3"/>
  <route id="route-129217471#2_to_27557731#0_0" edges="-4934444#0 -25466631#6"/>
  <route id="route-129217471#2_to_658599935#0_0" edges="4934592 8111025"/>
  <route id="route-129217471#2_to_128521564_0" edges="4934592 8111025"/>
  <route id="route-129217471#2_to_-7919284#4_0" edges="4934592 8111025"/>
  <route id="route-129217471#2_to_-6145835#0_0" edges="4934592 8111025"/>
  <route id="route-129217471#2_to_-156375819#3_0" edges="4934592 8111025"/>
  <route id="route-129217471#2_to_-54690619#1_0" edges="4934592 8111025"/>
  <route id="route-129217471#2_to_-38864101_0" edges="4934592 4934444#0 4934444#2 4934444#3"/>
  <route id="route-129217471#2_to_-26452027#9_0" edges="4934444#6 4934446#0"/>
  <route id="route-129217471#2_to_-4934444#6_0" edges="-4934446#6 -4934446#2 -4934446#0 -4934444#6"/>
  <route id="route-129217471#2_to_10575471#0_0" edges="4934444#6 4934446#0"/>
  <route id="route-129217471#2_to_39540888#1_0" edges="4934592 8111025"/>
  <route id="route-129217471#2_to_33909913#0_0" edges="4934592 8111025"/>
  <route id="route-129217471#2_to_561862252#3_0" edges="4934592 8111025"/>
  <route id="route-129217471#2_to_44409759#0_0" edges="4934592 8111025"/>
  <route id="route-129217471#2_to_110403094#1_0" edges="4934592 8111025"/>
  <route id="route-129217471#2_to_110403205#0_0" edges="4934592 8111025"/>
  <route id="route-129217471#2_to_78628853_0" edges="4934592 8111025"/>
  <route id="route-129217471#2_to_13872816#0_0" edges="228373543#3"/>
  <route id="route-129217471#2_to_39371977_0" edges="4934592 8111025"/>
  <route id="route-129217471#2_to_368505007#1_0" edges="4934592 8111025"/>
  <route id="route-129217471#2_to_38918794#0_0" edges="4934592 8111025"/>
  <route id="route-129217471#2_to_405573991_0" edges="4934592 8111025"/>
  <route id="route-129217471#2_to_-38864100#0_0" edges="4934592 4934444#0 4934444#2 4934444#3"/>
  <route id="route-129217471#2_to_7919276#5_0" edges="4934592 8111025"/>
  <route id="route-129217471#2_to_-110445434_0" edges="4934592 8111025"/>
  <route id="route-129217471#2_to_-563920576_0" edges="-4934444#0 -25466631#6 -25466631#3 -612719551#3 -563920576"/>
  <route id="route-129217471#2_to_-57362816_0" edges="-4934446#6 -10575471#2"/>
  <route id="route-129217471#2_to_2294450#0_0" edges="-4934444#0 -25466631#6 -25466631#3 -612719551#3"/>
  <route id="route-129217471#2_to_128521425_0" edges="4934592 8111025"/>
  <route id="route-129217471#2_to_110407380#0_0" edges="4934592 8111025"/>
  <route id="route-129217471#2_to_128521557_0" edges="4934592 8111025"/>
  <route id="route-129217471#2_to_109527590_0" edges="-4934446#6 -10575471#2"/>
  <route id="route-129217471#2_to_-110403089#1_0" edges="4934592 8111025"/>
  <route id="route4825341#2_to_44409757#0_0" edges="4934592 8111025"/>
  <route id="route4825341#2_to_110403094#1_0" edges="4934592 8111025"/>
  <route id="route4825341#2_to_7919275#2_0" edges="4934592 8111025"/>
  <route id="route4825341#2_to_317312609_0" edges="4934592 8111025"/>
  <route id="route4825341#2_to_22716630#0_0" edges="4934444#6 129068838 370154352#0"/>
  <route id="route4825341#2_to_4934446#3_0" edges="4934444#6 4934446#0 4934446#2 4934446#3"/>
  <route id="route4825341#2_to_10575471#1_0" edges="4934444#6 4934446#0"/>
  <route id="route4825341#2_to_4926189#0_0" edges="-4934444#0 -25466631#6 -25466631#3 -612719551#3 -563920576 4926189#0"/>
  <route id="route4825341#2_to_7919286#0_0" edges="4934592 8111025"/>
  <route id="route4825341#2_to_-110445437_0" edges="4934592 8111025"/>
  <route id="route4825341#2_to_33909913#0_0" edges="4934592 8111025"/>
  <route id="route4825341#2_to_38918794#0_0" edges="4934592 8111025"/>
  <route id="route4825341#2_to_4215695_0" edges="-4934444#0 -25466631#6 -25466631#3 -612719551#3"/>
  <route id="route4825341#2_to_-110403096_0" edges="4934592 8111025"/>
  <route id="route4825341#2_to_22770490#0_0" edges="4934592 8111025"/>
  <route id="route4825341#2_to_-38864100#0_0" edges="4934592 4934444#0 4934444#2 4934444#3"/>
  <route id="route4825341#2_to_-110403089#1_0" edges="4934592 8111025"/>
  <route id="route4825341#2_to_-7919284#2_0" edges="4934592 8111025"/>
  <route id="route4825341#2_to_128521424_0" edges="4934592 8111025"/>
  <route id="route4825341#2_to_7919276#5_0" edges="4934592 8111025"/>
  <route id="route4825341#2_to_228373543#3_0" edges="228373543#3"/>
  <route id="route4825341#2_to_9084582_0" edges="4934592 8111025"/>
  <route id="route4825341#2_to_33854576_0" edges="-4934444#0 -25466631#6 -25466631#3 -612719551#3 -563920576 33854576"/>
  <route id="route4825341#2_to_78628853_0" edges="4934592 8111025"/>
  <route id="route4825341#2_to_-110403094#0_0" edges="4934592 8111025"/>
  <route id="route4825341#2_to_-38864101_0" edges="4934592 4934444#0 4934444#2 4934444#3"/>
  <route id="route4825341#2_to_39371977_0" edges="4934592 8111025"/>
  <route id="route4825341#2_to_-368505008#3_0" edges="4934592 8111025"/>
  <route id="route4825341#2_to_84017574_0" edges="4934444#6 4934446#0"/>
  <route id="route4825341#2_to_561862252#3_0" edges="4934592 8111025"/>
  <route id="route4825341#2_to_109527590_0" edges="4934444#6 4934446#0"/>
  <route id="route4825341#2_to_44409759#0_0" edges="4934592 8111025"/>
  <route id="route4825341#2_to_-26452027#3_0" edges="4934444#6 4934446#0"/>
  <route id="route4825341#2_to_-54690619#1_0" edges="4934592 8111025"/>
  <route id="route4825341#2_to_110407380#0_0" edges="4934592 8111025"/>
  <route id="route4825341#2_to_631925372#0_0" edges="4934592 8111025"/>
  <route id="route-3791034#1_to_44402155_0" edges="228373543#3 153341565#0 33854575#0 36819764"/>
  <route id="route-3791034#1_to_84017574_0" edges="4934444#6 4934446#0"/>
  <route id="route-3791034#1_to_44445666_0" edges="228373543#3 153341565#0 33854575#0 36819764"/>
  <route id="route-3791034#1_to_44385285_0" edges="228373543#3 153341565#0 33854575#0 36819764"/>
  <route id="route-3791034#1_to_110407380#0_0" edges="4934592 8111025"/>
  <route id="route-3791034#1_to_30999741#0_0" edges="13873181#0 238334895#0 -44398171#1"/>
  <route id="route-3791034#1_to_50502873_0" edges="4934444#6 4934446#0 4934446#2 4934446#3"/>
  <route id="route-3791034#1_to_78628853_0" edges="4934592 8111025"/>
  <route id="route-3791034#1_to_36892455_0" edges="4934444#6 4934446#0 4934446#2 4934446#3"/>
  <route id="route-3791034#1_to_-57362816_0" edges="4934444#6 4934446#0"/>
  <route id="route-3791034#1_to_44409749_0" edges="228373543#3 153341565#0 33854575#0 36819764"/>
  <route id="route-3791034#1_to_-561862256_0" edges="4934592 8111025"/>
  <route id="route-3791034#1_to_234244114#2_0" edges="13873181#0 238334895#0 4287295#0"/>
  <route id="route-3791034#1_to_109527590_0" edges="4934444#6 4934446#0"/>
  <route id="route-3791034#1_to_-44398141#1_0" edges="228373543#3 153341565#0 33854575#0 36819764"/>
  <route id="route-3791034#1_to_44398145_0" edges="228373543#3 153341565#0 33854575#0 36819764"/>
  <route id="route-3791034#1_to_368646804#0_0" edges="13873181#0 238334895#0 -44398171#1"/>
  <route id="route-3791034#1_to_-32631389#0_0" edges="228373543#3 153341565#0 33854575#0 36819764"/>
  <route id="route-3791034#1_to_110403094#1_0" edges="4934592 8111025"/>
  <route id="route-3791034#1_to_44436781#2_0" edges="228373543#3 153341565#0 33854575#0 36819764"/>
  <route id="route-3791034#1_to_44368510_0" edges="228373543#3 153341565#0 33854575#0 36819764"/>
  <route id="route-3791034#1_to_44409754_0" edges="4934592 8111025"/>
  <route id="route-3791034#1_to_39371977_0" edges="4934592 8111025"/>
  <route id="route-3791034#1_to_-44436781#0_0" edges="228373543#3 153341565#0 33854575#0 36819764"/>
  <route id="route-3791034#1_to_185275576_0" edges="228373543#3 153341565#0 33854575#0 36819764"/>
  <route id="route-3791034#1_to_-38864101_0" edges="4934592 4934444#0 4934444#2 4934444#3"/>
  <route id="route-3791034#1_to_44398143_0" edges="228373543#3 153341565#0 33854575#0 36819764"/>
  <route id="route-3791034#1_to_37811518_0" edges="4934444#6 4934446#0 4934446#2 4934446#3"/>
  <route id="route-3791034#1_to_44409737#0_0" edges="228373543#3 153341565#0 33854575#0 36819764"/>
  <route id="route-3791034#1_to_153341564#0_0" edges="228373543#3"/>
  <route id="route-3791034#1_to_8166824#0_0" edges="228373543#3 153341565#0 33854575#0 36819764"/>
  <route id="route-3791034#1_to_-54690619#1_0" edges="4934592 8111025"/>
  <route id="route-3791034#1_to_-368646813#4_0" edges="13873181#0 238334895#0 -44398171#1"/>
  <route id="route-3791034#1_to_44464172#0_0" edges="228373543#3 153341565#0 33854575#0 36819764"/>
  <route id="route-3791034#1_to_-638758966_0" edges="4934444#6 4934446#0 4934446#2 4934446#3"/>
  <route id="route-3791034#1_to_32631503#0_0" edges="228373543#3 153341565#0 33854575#0"/>
  <route id="route-3791034#1_to_368646813#11_0" edges="13873181#0 238334895#0 4287295#0"/>
  <route id="route-3791034#1_to_561862252#3_0" edges="4934592 8111025"/>
  <route id="route-3791034#1_to_-44432110#0_0" edges="228373543#3 153341565#0 33854575#0 36819764"/>
  <route id="route-3791034#1_to_44409739#1_0" edges="228373543#3 153341565#0 33854575#0 36819764"/>
  <route id="route-3791034#1_to_44385284_0" edges="228373543#3 153341565#0 33854575#0 36819764"/>
  <route id="route-3791034#1_to_-44402154#3_0" edges="13873181#0 238334895#0 -44398171#1"/>
  <route id="route-3791034#1_to_22770494_0" edges="4934592 8111025"/>
  <route id="route-3791034#1_to_-110403089#1_0" edges="4934592 8111025"/>
  <route id="route-3791034#1_to_-285907434_0" edges="4934444#6 4934446#0 4934446#2 4934446#3"/>
  <route id="route-3791034#1_to_22770490#2_0" edges="4934592 8111025"/>
  <route id="route-3791034#1_to_-110403094#0_0" edges="4934592 8111025"/>
  <route id="route-3791034#1_to_234244112_0" edges="13873181#0 238334895#0 4287295#0"/>
  <route id="route-3791034#1_to_-38864100#0_0" edges="4934592 4934444#0 4934444#2 4934444#3"/>
  <route id="route-3791034#1_to_-7919280#1_0" edges="228373543#3 153341565#0 33854575#0 36819764"/>
  <route id="route-3791034#1_to_44409759#0_0" edges="228373543#3 153341565#0 33854575#0 36819764"/>
  <route id="route-3791034#1_to_26452028#1_0" edges="4934444#6 129068838 370154352#0"/>
  <route id="route-3791034#1_to_44432110#1_0" edges="228373543#3 153341565#0 33854575#0 36819764"/>
  <route id="route-3791034#1_to_-110403096_0" edges="4934592 8111025"/>
  <route id="route-3791034#1_to_-44436782#1_0" edges="4934592 8111025"/>
  <route id="route26545993#0_to_78628853_0" edges="4934592 8111025"/>
  <route id="route26545993#0_to_153341564#0_0" edges="228373543#3"/>
  <route id="route26545993#0_to_7977023#0_0" edges="228373543#3 153341565#0 33854575#0 36819764"/>
  <route id="route26545993#0_to_-26452028#2_0" edges="4934444#6 129068838 370154352#0"/>
  <route id="route26545993#0_to_-38864100#0_0" edges="4934592 4934444#0 4934444#2 4934444#3"/>
  <route id="route26545993#0_to_44409754_0" edges="4934592 8111025"/>
  <route id="route26545993#0_to_7919275#1_0" edges="-4934444#0 -25466631#6 -25466631#3 -612719551#3"/>
  <route id="route26545993#0_to_-38864101_0" edges="4934592 4934444#0 4934444#2 4934444#3"/>
  <route id="route26545993#0_to_84017574_0" edges="4934444#6 4934446#0"/>
  <route id="route26545993#0_to_8568389#0_0" edges="228373543#3 153341565#0 33854575#0 36819764"/>
  <route id="route26545993#0_to_612719551#0_0" edges="228373543#3 153341565#0 -4926189#10 -4926189#8 2294451 612719551#0"/>
  <route id="route26545993#0_to_-110403094#0_0" edges="-4934444#0 -25466631#6 -25466631#3 -612719551#3"/>
  <route id="route26545993#0_to_-54690619#1_0" edges="4934592 8111025"/>
  <route id="route26545993#0_to_7919287#2_0" edges="228373543#3 153341565#0 33854575#0 36819764"/>
  <route id="route26545993#0_to_6653000#2_0" edges="-4934444#0 -25466631#6 -25466631#3 -612719551#3 -563920576 4926189#0 4926189#9 4926209#0 36819763#0"/>
  <route id="route26545993#0_to_30999741#0_0" edges="-4934444#0 -25466631#6 -25466631#3 -612719551#3 -563920576 4926189#0 4926189#9 4926209#0 36819763#0"/>
  <route id="route26545993#0_to_-7919286#1_0" edges="-4934444#0 -25466631#6 -25466631#3 -612719551#3"/>
  <route id="route26545993#0_to_-7919284#4_0" edges="-4934444#0 -25466631#6 -25466631#3 -612719551#3"/>
  <route id="route26545993#0_to_-302902115_0" edges="228373543#3 153341565#0 33854575#0 36819764"/>
  <route id="route26545993#0_to_238334895#0_0" edges="13873181#0 238334895#0"/>
  <route id="route26545993#0_to_38918794#0_0" edges="4934592 8111025"/>
  <route id="route26545993#0_to_-110403096_0" edges="4934592 8111025"/>
  <route id="route26545993#0_to_-22716631#2_0" edges="4934592 8111025"/>
  <route id="route26545993#0_to_109527590_0" edges="4934444#6 4934446#0"/>
  <route id="route26545993#0_to_22770490#2_0" edges="4934592 8111025"/>
  <route id="route26545993#0_to_-156375816#4_0" edges="4934592 8111025"/>
  <route id="route26545993#0_to_-13866426_0" edges="-4934444#0 -25466631#6 -25466631#3 -612719551#3 -563920576 4926189#0 4926189#9 4926209#0 36819763#0 44398171#0 -13866426"/>
  <route id="route26545993#0_to_-561862256_0" edges="4934592 8111025"/>
  <route id="route26545993#0_to_44409759#0_0" edges="-4934444#0 -25466631#6 -25466631#3 -612719551#3"/>
  <route id="route26545993#0_to_39371977_0" edges="4934592 8111025"/>
  <route id="route26545993#0_to_26452028#1_0" edges="4934444#6 129068838 370154352#0"/>
  <route id="route26545993#0_to_110403205#0_0" edges="4934592 8111025"/>
  <route id="route26545993#0_to_110403094#1_0" edges="-4934444#0 -25466631#6 -25466631#3 -612719551#3"/>
  <route id="route26545993#0_to_-57362816_0" edges="4934444#6 4934446#0"/>
  <route id="route26545993#0_to_-13872818_0" edges="228373543#3"/>
  <route id="route26545993#0_to_40070420#0_0" edges="13873181#0"/>
  <route id="route26545993#0_to_4287295#0_0" edges="-4934444#0 -25466631#6 -25466631#3 -612719551#3 -563920576 4926189#0 4926189#9 4926209#0 36819763#0 44398171#0 4287295#0"/>
  <route id="route26545993#0_to_116689248#2_0" edges="228373543#3 153341565#0 33854575#0 36819764"/>
  <route id="route26545993#0_to_-360342135#2_0" edges="4934444#6 129068838 370154352#0"/>
  <route id="route26545993#0_to_368505012_0" edges="4934592 8111025"/>
  <route id="route26545993#0_to_561862252#3_0" edges="4934592 8111025"/>
  <route id="route26545993#0_to_32631503#0_0" edges="228373543#3 153341565#0 33854575#0"/>
  <route id="route26545993#0_to_-110403089#1_0" edges="4934592 8111025"/>
  <route id="route26545993#0_to_22770494_0" edges="4934592 8111025"/>
  <route id="route26545993#0_to_4926002_0" edges="4934444#6 4934446#0 4934446#2 4934446#3"/>
  <route id="route26545993#0_to_-44436782#1_0" edges="4934592 8111025"/>
  <route id="route26545993#0_to_110407380#0_0" edges="4934592 8111025"/>
  <route id="route26545993#0_to_631925372#0_0" edges="-4934444#0 -25466631#6 -25466631#3 -612719551#3"/>
  <route id="route3716924_to_13873181#0_0" edges="13873181#0"/>
  <route id="routegneE29_to_13873181#0_0" edges="13873181#0"/>
  <route id="route3792490#0_to_-38864101_0" edges="4934592 4934444#0 4934444#2 4934444#3"/>
  <route id="route3792490#0_to_109527590_0" edges="4934592 4934444#0 4934444#2 4934444#3 4934444#5 4934444#6 4934446#0"/>
  <route id="route3792490#0_to_42879978_0" edges="4934592 4934444#0 4934444#2 4934444#3 4934444#5 4934444#6 4934446#0 4934446#2 4934446#3"/>
  <route id="route3792490#0_to_368646804#0_0" edges="13873181#0 238334895#0 -44398171#1"/>
  <route id="route3792490#0_to_-638758966_0" edges="4934592 4934444#0 4934444#2 4934444#3 4934444#5 4934444#6 4934446#0 4934446#2 4934446#3"/>
  <route id="route3792490#0_to_44409759#0_0" edges="228373543#3 153341565#0 33854575#0 36819764"/>
  <route id="route3792490#0_to_-26452028#2_0" edges="4934592 4934444#0 4934444#2 4934444#3 4934444#5 4934444#6 129068838 370154352#0"/>
  <route id="route3792490#0_to_185275576_0" edges="228373543#3 153341565#0 33854575#0 36819764"/>
  <route id="route3792490#0_to_22770490#2_0" edges="4934592 8111025"/>
  <route id="route3792490#0_to_44385284_0" edges="228373543#3 153341565#0 33854575#0 36819764"/>
  <route id="route3792490#0_to_44436781#2_0" edges="228373543#3 153341565#0 33854575#0 36819764"/>
  <route id="route3792490#0_to_-110403094#0_0" edges="4934592 8111025"/>
  <route id="route3792490#0_to_78628853_0" edges="4934592 8111025"/>
  <route id="route3792490#0_to_44368510_0" edges="228373543#3 153341565#0 33854575#0 36819764"/>
  <route id="route3792490#0_to_-22716631#2_0" edges="4934592 8111025"/>
  <route id="route3792490#0_to_44007601#0_0" edges="13873181#0 238334895#0 4287295#0"/>
  <route id="route3792490#0_to_44409754_0" edges="228373543#3 153341565#0 33854575#0 36819764"/>
  <route id="route3792490#0_to_37811518_0" edges="4934592 4934444#0 4934444#2 4934444#3 4934444#5 4934444#6 4934446#0 4934446#2 4934446#3"/>
  <route id="route3792490#0_to_-13872818_0" edges="228373543#3"/>
  <route id="route3792490#0_to_44402155_0" edges="228373543#3 153341565#0 33854575#0 36819764"/>
  <route id="route3792490#0_to_50502870#2_0" edges="4934592 4934444#0 4934444#2 4934444#3 4934444#5 4934444#6 4934446#0 4934446#2 4934446#3"/>
  <route id="route3792490#0_to_44409741#1_0" edges="228373543#3 153341565#0 33854575#0 36819764"/>
  <route id="route3792490#0_to_44432110#1_0" edges="228373543#3 153341565#0 33854575#0 36819764"/>
  <route id="route3792490#0_to_26452028#1_0" edges="4934592 4934444#0 4934444#2 4934444#3 4934444#5 4934444#6 129068838 370154352#0"/>
  <route id="route3792490#0_to_10575482_0" edges="4934592 4934444#0 4934444#2 4934444#3 4934444#5"/>
  <route id="route3792490#0_to_44409737#0_0" edges="228373543#3 153341565#0 33854575#0 36819764"/>
  <route id="route3792490#0_to_153341564#0_0" edges="228373543#3"/>
  <route id="route3792490#0_to_-271494224#3_0" edges="13873181#0 238334895#0 4287295#0"/>
  <route id="route3792490#0_to_-57362816_0" edges="4934592 4934444#0 4934444#2 4934444#3 4934444#5 4934444#6 4934446#0"/>
  <route id="route3792490#0_to_110403205#0_0" edges="4934592 8111025"/>
  <route id="route3792490#0_to_-561862256_0" edges="4934592 8111025"/>
  <route id="route3792490#0_to_30999741#0_0" edges="13873181#0 238334895#0 -44398171#1"/>
  <route id="route3792490#0_to_44398145_0" edges="228373543#3 153341565#0 33854575#0 36819764"/>
  <route id="route3792490#0_to_-110403096_0" edges="4934592 8111025"/>
  <route id="route3792490#0_to_38918794#0_0" edges="4934592 8111025"/>
  <route id="route3792490#0_to_234244112_0" edges="13873181#0 238334895#0 4287295#0"/>
  <route id="route3792490#0_to_368505008#3_0" edges="4934592 8111025"/>
  <route id="route3792490#0_to_8166824#0_0" edges="228373543#3 153341565#0 33854575#0 36819764"/>
  <route id="route3792490#0_to_-156375816#2_0" edges="228373543#3 153341565#0 33854575#0 36819764"/>
  <route id="route3792490#0_to_110403094#1_0" edges="4934592 8111025"/>
  <route id="route3792490#0_to_36892455_0" edges="4934592 4934444#0 4934444#2 4934444#3 4934444#5 4934444#6 4934446#0 4934446#2 4934446#3"/>
  <route id="route3792490#0_to_-7919280#1_0" edges="228373543#3 153341565#0 33854575#0 36819764"/>
  <route id="route3792490#0_to_44409749_0" edges="228373543#3 153341565#0 33854575#0 36819764"/>
  <route id="route3792490#0_to_-44402154#3_0" edges="13873181#0 238334895#0 -44398171#1"/>
  <route id="route3792490#0_to_368646813#11_0" edges="13873181#0 238334895#0 4287295#0"/>
  <route id="route3792490#0_to_110407380#0_0" edges="4934592 8111025"/>
  <route id="route3792490#0_to_-44398141#1_0" edges="228373543#3 153341565#0 33854575#0 36819764"/>
  <route id="route3792490#0_to_-44436782#1_0" edges="228373543#3 153341565#0 33854575#0 36819764"/>
  <route id="route3792490#0_to_-44436781#0_0" edges="228373543#3 153341565#0 33854575#0 36819764"/>
  <route id="route3792490#0_to_129298405_0" edges="4934592 4934444#0 4934444#2 4934444#3 4934444#5 4934444#6 4934446#0 4934446#2 4934446#3"/>
  <route id="route3792490#0_to_234244114#2_0" edges="13873181#0 238334895#0 4287295#0"/>
  <route id="route3792490#0_to_-38864100#0_0" edges="4934592 4934444#0 4934444#2 4934444#3"/>
  <route id="route3792490#0_to_-44432110#0_0" edges="228373543#3 153341565#0 33854575#0 36819764"/>
  <route id="route3792490#0_to_44398143_0" edges="228373543#3 153341565#0 33854575#0 36819764"/>
  <route id="route3792490#0_to_44445666_0" edges="228373543#3 153341565#0 33854575#0 36819764"/>
  <route id="route3792490#0_to_44385285_0" edges="228373543#3 153341565#0 33854575#0 36819764"/>
  <route id="route3792490#0_to_32631503#0_0" edges="228373543#3 153341565#0 33854575#0"/>
  <route id="route3792490#0_to_39371977_0" edges="4934592 8111025"/>
  <route id="route3792490#0_to_-32631389#0_0" edges="228373543#3 153341565#0 33854575#0 36819764"/>
  <route id="route3792490#0_to_22770494_0" edges="4934592 8111025"/>
  <route id="route3792490#0_to_-285907434_0" edges="4934592 4934444#0 4934444#2 4934444#3 4934444#5 4934444#6 4934446#0 4934446#2 4934446#3"/>
  <route id="route3792490#0_to_50502873_0" edges="4934592 4934444#0 4934444#2 4934444#3 4934444#5 4934444#6 4934446#0 4934446#2 4934446#3"/>
  <route id="route3792490#0_to_-54690619#1_0" edges="4934592 8111025"/>
  <route id="route3792490#0_to_-110403089#1_0" edges="4934592 8111025"/>
  <route id="route3792490#0_to_44409739#1_0" edges="228373543#3 153341565#0 33854575#0 36819764"/>
  <route id="route3792490#0_to_44464172#0_0" edges="228373543#3 153341565#0 33854575#0 36819764"/>
  <route id="route3792490#0_to_84017574_0" edges="4934592 4934444#0 4934444#2 4934444#3 4934444#5 4934444#6 4934446#0"/>
  <route id="route3792490#0_to_561862252#3_0" edges="4934592 8111025"/>
  <route id="route3792490#0_to_-110445434_0" edges="4934592 8111025"/>
  <route id="route49961185_to_7415907#0_0" edges="4934592 4934444#0"/>
  <route id="route49961185_to_4934444#2_0" edges="4934592 4934444#0 4934444#2"/>
  <route id="route49961185_to_48520199_0" edges="4934592 8111025"/>
  <route id="route49961185_to_147463637#0_0" edges="4934592 4934444#0"/>
  <route id="route49961185_to_-145571187_0" edges="4934592 8111025"/>
  <route id="route3791745#0_to_44007601#0_0" edges="13873181#0 238334895#0 4287295#0"/>
  <route id="route3791745#0_to_368646813#5_0" edges="13873181#0 238334895#0 4287295#0"/>
  <route id="route3791745#0_to_6653000#4_0" edges="13873181#0 238334895#0 -44398171#1"/>
  <route id="route3791745#0_to_30999741#0_0" edges="13873181#0 238334895#0 -44398171#1"/>
  <route id="route3791745#0_to_-44402154#3_0" edges="13873181#0 238334895#0 -44398171#1"/>
  <route id="route-15464769#0_to_7919284#0_0" edges="13873181#0 238334895#0 -44398171#1"/>
  <route id="route-15464769#0_to_368646804#0_0" edges="13873181#0 238334895#0 -44398171#1"/>
  <route id="route24973956#0_to_10575469#0_0" edges="4934592 4934444#0"/>
  <route id="route24973956#0_to_-23501248#8_0" edges="228373543#3 153341565#0 -4926189#10 -4926189#8 2294451 612719551#0 25466631#0"/>
  <route id="route24973956#0_to_-128521573#0_0" edges="4934592 8111025"/>
  <route id="route24973956#0_to_9084588#0_0" edges="4934592 8111025"/>
  <route id="route24973956#0_to_6653000#0_0" edges="13873181#0 238334895#0 -44398171#1"/>
  <route id="route24973956#0_to_38864104_0" edges="4934592 4934444#0"/>
  <route id="route24973956#0_to_25466631#4_0" edges="228373543#3 153341565#0 -4926189#10 -4926189#8 2294451 612719551#0 25466631#0 25466631#4"/>
  <route id="route24973956#0_to_238740929_0" edges="4934592 8111025"/>
  <route id="route24973956#0_to_7919275#4_0" edges="228373543#3 153341565#0 33854575#0 36819764"/>
  <route id="route24973956#0_to_-116689248#2_0" edges="228373543#3 153341565#0 33854575#0 36819764"/>
  <route id="route24973956#0_to_-13983801#2_0" edges="4934592 8111025"/>
  <route id="route24973956#0_to_153341564#0_0" edges="228373543#3"/>
  <route id="route24973956#0_to_-13872818_0" edges="228373543#3"/>
  <route id="route24973956#0_to_10575480#0_0" edges="4934592 4934444#0 4934444#2 4934444#3 4934444#5"/>
  <route id="route24973956#0_to_-38864100#1_0" edges="4934592 4934444#0 4934444#2 4934444#3"/>
  <route id="route24973956#0_to_128521573#1_0" edges="4934592 8111025"/>
  <route id="route24973956#0_to_-32631389#3_0" edges="228373543#3 153341565#0 33854575#0 36819764"/>