<?xml version="1.0" encoding="UTF-8"?>
<!-- generated on 2022-01-10 11:54:53.016761 by cutRoutes.py UNKNOWN
  options: /home/gjy/ITSC2020_CAV_impact-master/selected/selected_simplified.net.xml /home/gjy/ITSC2020_CAV_impact-master/Urban/Simulations/Base/DCC_emitters.emi.xml /home/gjy/ITSC2020_CAV_impact-master/Urban/Simulations/Base/DCC_routes.rou.xml <doubleminus>routes-output /home/gjy/ITSC2020_CAV_impact-master/selected/selected_simplified.rou.xml <doubleminus>orig-net /home/gjy/ITSC2020_CAV_impact-master/Urban/Simulations/Base/DCC.net.xml
-->
<routes xmlns:xsi="http://www.w3.org/2001/XMLSchema-instance" xsi:noNamespaceSchemaLocation="http://sumo.dlr.de/xsd/routes_file.xsd">
    <route edges="228373543#3 153341565#0 33854575#0 36819764" id="394744908#1_to_7919287#2"/>
    <route edges="4934592 8111025" id="394744908#1_to_44409754"/>
    <route edges="-4934444#0 -25466631#6 -25466631#3 -612719551#3 -563920576 4926189#0 4926189#9 4926209#0 36819763#0 44398171#0 4287295#0" id="394744908#1_to_44007601#0"/>
    <route edges="4934444#6 129068838 370154352#0" id="394744908#1_to_26452028#1"/>
    <route edges="-4934444#0 -25466631#6 -25466631#3 -612719551#3 -563920576 4926189#0 4926189#9 4926209#0 36819763#0" id="394744908#1_to_30999741#0"/>
    <route edges="4934592 8111025" id="394744908#1_to_-44436782#1"/>
    <route edges="4934444#6 129068838 370154352#0" id="394744908#1_to_9084582"/>
    <route edges="4934444#6 4934446#0" id="394744908#1_to_84017574"/>
    <route edges="4934592 8111025" id="394744908#1_to_39371977"/>
    <route edges="-4934444#0 -25466631#6 -25466631#3 -612719551#3" id="394744908#1_to_-7919287#5"/>
    <route edges="4934592 8111025" id="394744908#1_to_-110403089#1"/>
    <route edges="4934592 8111025" id="394744908#1_to_-22716631#2"/>
    <route edges="4934444#6 129068838 370154352#0" id="394744908#1_to_317312609"/>
    <route edges="4934444#6 129068838 370154352#0" id="394744908#1_to_128521424"/>
    <route edges="-4934444#5" id="394744908#1_to_-38864100#0"/>
    <route edges="-4934444#0 -25466631#6 -25466631#3 -612719551#3 -563920576 4926189#0 4926189#9 4926209#0 36819763#0" id="394744908#1_to_6653000#5"/>
    <route edges="4934592 8111025" id="394744908#1_to_110403205#0"/>
    <route edges="228373543#3" id="394744908#1_to_-13872818"/>
    <route edges="228373543#3 153341565#0 33854575#0 36819764" id="394744908#1_to_116689248#2"/>
    <route edges="4934592 8111025" id="394744908#1_to_-110403096"/>
    <route edges="-4934444#0 -25466631#6 -25466631#3 -612719551#3" id="394744908#1_to_7919275#3"/>
    <route edges="13873181#0" id="394744908#1_to_40070420#0"/>
    <route edges="-4934444#0 -25466631#6 -25466631#3 -612719551#3" id="394744908#1_to_-110403094#0"/>
    <route edges="4934592 8111025" id="394744908#1_to_22770494"/>
    <route edges="4934592 8111025" id="394744908#1_to_38918794#0"/>
    <route edges="4934444#6 4934446#0" id="394744908#1_to_109527590"/>
    <route edges="13873181#0 238334895#0" id="394744908#1_to_238334895#0"/>
    <route edges="-4934444#0 -25466631#6 -25466631#3 -612719551#3" id="394744908#1_to_-7919284#4"/>
    <route edges="4934592 8111025" id="394744908#1_to_78628853"/>
    <route edges="4934444#6 4934446#0" id="394744908#1_to_-57362816"/>
    <route edges="4934444#6 129068838 370154352#0" id="394744908#1_to_110407380#0"/>
    <route edges="-4934444#0 -25466631#6 -25466631#3 -612719551#3 -563920576 4926189#0 4926189#9 4926209#0 36819763#0" id="394744908#1_to_32631306#0"/>
    <route edges="4934444#6 129068838 370154352#0" id="394744908#1_to_-26452028#2"/>
    <route edges="4934592 8111025" id="394744908#1_to_22770490#2"/>
    <route edges="-4934444#0 -25466631#6 -25466631#3 -612719551#3" id="394744908#1_to_44409759#0"/>
    <route edges="4934592 8111025" id="394744908#1_to_-156375816#4"/>
    <route edges="228373543#3 153341565#0 33854575#0 36819764" id="394744908#1_to_8568389#0"/>
    <route edges="228373543#3 153341565#0 33854575#0 36819764" id="394744908#1_to_-302902115"/>
    <route edges="4934592 8111025" id="394744908#1_to_-561862256"/>
    <route edges="-4934444#0 -25466631#6 -25466631#3 -612719551#3 -563920576 4926189#0 4926189#9 4926209#0 36819763#0 44398171#0 4287295#0" id="394744908#1_to_368646813#1"/>
    <route edges="228373543#3" id="394744908#1_to_153341564#0"/>
    <route edges="228373543#3 153341565#0 33854575#0" id="394744908#1_to_32631503#0"/>
    <route edges="-4934444#5" id="394744908#1_to_-38864101"/>
    <route edges="-4934444#0 -25466631#6 -25466631#3 -612719551#3" id="394744908#1_to_7919284#6"/>
    <route edges="4934444#6 129068838 370154352#0" id="394744908#1_to_-360342135#0"/>
    <route edges="228373543#3 153341565#0 33854575#0 36819764" id="394744908#1_to_7977023#0"/>
    <route edges="4934592 8111025" id="394744908#1_to_317312606"/>
    <route edges="228373543#3 153341565#0 -4926189#10 -4926189#8 2294451 612719551#0" id="394744908#1_to_612719551#0"/>
    <route edges="4934592 8111025" id="394744908#1_to_561862252#3"/>
    <route edges="-4934444#0 -25466631#6 -25466631#3 -612719551#3 -563920576 4926189#0 4926189#9 4926209#0 36819763#0" id="394744908#1_to_-44402154#3"/>
    <route edges="-4934444#0 -25466631#6 -25466631#3 -612719551#3" id="394744908#1_to_110403094#1"/>
    <route edges="4934592 4934444#0 4934444#2 4934444#3" id="-129217471#2_to_26452027#0"/>
    <route edges="228373543#3 153341565#0" id="-129217471#2_to_153341565#0"/>
    <route edges="228373543#3" id="-129217471#2_to_13873188#0"/>
    <route edges="4934592 8111025" id="-129217471#2_to_-110403096"/>
    <route edges="-4934446#6 -10575471#2" id="-129217471#2_to_-10575471#0"/>
    <route edges="4934592 8111025" id="-129217471#2_to_-7919286#1"/>
    <route edges="4934444#6 4934446#0 4934446#2" id="-129217471#2_to_4934446#2"/>
    <route edges="4934592 8111025" id="-129217471#2_to_22716630#0"/>
    <route edges="4934444#6 129068838 370154352#0" id="-129217471#2_to_370154352#0"/>
    <route edges="4934592 8111025" id="-129217471#2_to_7919275#1"/>
    <route edges="4934592 4934444#0 4934444#2 4934444#3" id="-129217471#2_to_-26452026#1"/>
    <route edges="-4934444#0 -25466631#6" id="-129217471#2_to_27557731#0"/>
    <route edges="4934592 8111025" id="-129217471#2_to_658599935#0"/>
    <route edges="4934592 8111025" id="-129217471#2_to_128521564"/>
    <route edges="4934592 8111025" id="-129217471#2_to_-7919284#4"/>
    <route edges="4934592 8111025" id="-129217471#2_to_-6145835#0"/>
    <route edges="4934592 8111025" id="-129217471#2_to_-156375819#3"/>
    <route edges="4934592 8111025" id="-129217471#2_to_-54690619#1"/>
    <route edges="4934592 4934444#0 4934444#2 4934444#3" id="-129217471#2_to_-38864101"/>
    <route edges="4934444#6 4934446#0" id="-129217471#2_to_-26452027#9"/>
    <route edges="-4934446#6 -4934446#2 -4934446#0 -4934444#6" id="-129217471#2_to_-4934444#6"/>
    <route edges="4934444#6 4934446#0" id="-129217471#2_to_10575471#0"/>
    <route edges="4934592 8111025" id="-129217471#2_to_39540888#1"/>
    <route edges="4934592 8111025" id="-129217471#2_to_33909913#0"/>
    <route edges="4934592 8111025" id="-129217471#2_to_561862252#3"/>
    <route edges="4934592 8111025" id="-129217471#2_to_44409759#0"/>
    <route edges="4934592 8111025" id="-129217471#2_to_110403094#1"/>
    <route edges="4934592 8111025" id="-129217471#2_to_110403205#0"/>
    <route edges="4934592 8111025" id="-129217471#2_to_78628853"/>
    <route edges="228373543#3" id="-129217471#2_to_13872816#0"/>
    <route edges="4934592 8111025" id="-129217471#2_to_39371977"/>
    <route edges="4934592 8111025" id="-129217471#2_to_368505007#1"/>
    <route edges="4934592 8111025" id="-129217471#2_to_38918794#0"/>
    <route edges="4934592 8111025" id="-129217471#2_to_405573991"/>
    <route edges="4934592 4934444#0 4934444#2 4934444#3" id="-129217471#2_to_-38864100#0"/>
    <route edges="4934592 8111025" id="-129217471#2_to_7919276#5"/>
    <route edges="4934592 8111025" id="-129217471#2_to_-110445434"/>
    <route edges="-4934444#0 -25466631#6 -25466631#3 -612719551#3 -563920576" id="-129217471#2_to_-563920576"/>
    <route edges="-4934446#6 -10575471#2" id="-129217471#2_to_-57362816"/>
    <route edges="-4934444#0 -25466631#6 -25466631#3 -612719551#3" id="-129217471#2_to_2294450#0"/>
    <route edges="4934592 8111025" id="-129217471#2_to_128521425"/>
    <route edges="4934592 8111025" id="-129217471#2_to_110407380#0"/>
    <route edges="4934592 8111025" id="-129217471#2_to_128521557"/>
    <route edges="-4934446#6 -10575471#2" id="-129217471#2_to_109527590"/>
    <route edges="4934592 8111025" id="-129217471#2_to_-110403089#1"/>
    <route edges="4934592 8111025" id="4825341#2_to_44409757#0"/>
    <route edges="4934592 8111025" id="4825341#2_to_110403094#1"/>
    <route edges="4934592 8111025" id="4825341#2_to_7919275#2"/>
    <route edges="4934592 8111025" id="4825341#2_to_317312609"/>
    <route edges="4934444#6 129068838 370154352#0" id="4825341#2_to_22716630#0"/>
    <route edges="4934444#6 4934446#0 4934446#2 4934446#3" id="4825341#2_to_4934446#3"/>
    <route edges="4934444#6 4934446#0" id="4825341#2_to_10575471#1"/>
    <route edges="-4934444#0 -25466631#6 -25466631#3 -612719551#3 -563920576 4926189#0" id="4825341#2_to_4926189#0"/>
    <route edges="4934592 8111025" id="4825341#2_to_7919286#0"/>
    <route edges="4934592 8111025" id="4825341#2_to_-110445437"/>
    <route edges="4934592 8111025" id="4825341#2_to_33909913#0"/>
    <route edges="4934592 8111025" id="4825341#2_to_38918794#0"/>
    <route edges="-4934444#0 -25466631#6 -25466631#3 -612719551#3" id="4825341#2_to_4215695"/>
    <route edges="4934592 8111025" id="4825341#2_to_-110403096"/>
    <route edges="4934592 8111025" id="4825341#2_to_22770490#0"/>
    <route edges="4934592 4934444#0 4934444#2 4934444#3" id="4825341#2_to_-38864100#0"/>
    <route edges="4934592 8111025" id="4825341#2_to_-110403089#1"/>
    <route edges="4934592 8111025" id="4825341#2_to_-7919284#2"/>
    <route edges="4934592 8111025" id="4825341#2_to_128521424"/>
    <route edges="4934592 8111025" id="4825341#2_to_7919276#5"/>
    <route edges="228373543#3" id="4825341#2_to_228373543#3"/>
    <route edges="4934592 8111025" id="4825341#2_to_9084582"/>
    <route edges="-4934444#0 -25466631#6 -25466631#3 -612719551#3 -563920576 33854576" id="4825341#2_to_33854576"/>
    <route edges="4934592 8111025" id="4825341#2_to_78628853"/>
    <route edges="4934592 8111025" id="4825341#2_to_-110403094#0"/>
    <route edges="4934592 4934444#0 4934444#2 4934444#3" id="4825341#2_to_-38864101"/>
    <route edges="4934592 8111025" id="4825341#2_to_39371977"/>
    <route edges="4934592 8111025" id="4825341#2_to_-368505008#3"/>
    <route edges="4934444#6 4934446#0" id="4825341#2_to_84017574"/>
    <route edges="4934592 8111025" id="4825341#2_to_561862252#3"/>
    <route edges="4934444#6 4934446#0" id="4825341#2_to_109527590"/>
    <route edges="4934592 8111025" id="4825341#2_to_44409759#0"/>
    <route edges="4934444#6 4934446#0" id="4825341#2_to_-26452027#3"/>
    <route edges="4934592 8111025" id="4825341#2_to_-54690619#1"/>
    <route edges="4934592 8111025" id="4825341#2_to_110407380#0"/>
    <route edges="4934592 8111025" id="4825341#2_to_631925372#0"/>
    <route edges="228373543#3 153341565#0 33854575#0 36819764" id="-3791034#1_to_44402155"/>
    <route edges="4934444#6 4934446#0" id="-3791034#1_to_84017574"/>
    <route edges="228373543#3 153341565#0 33854575#0 36819764" id="-3791034#1_to_44445666"/>
    <route edges="228373543#3 153341565#0 33854575#0 36819764" id="-3791034#1_to_44385285"/>
    <route edges="4934592 8111025" id="-3791034#1_to_110407380#0"/>
    <route edges="13873181#0 238334895#0 -44398171#1" id="-3791034#1_to_30999741#0"/>
    <route edges="4934444#6 4934446#0 4934446#2 4934446#3" id="-3791034#1_to_50502873"/>
    <route edges="4934592 8111025" id="-3791034#1_to_78628853"/>
    <route edges="4934444#6 4934446#0 4934446#2 4934446#3" id="-3791034#1_to_36892455"/>
    <route edges="4934444#6 4934446#0" id="-3791034#1_to_-57362816"/>
    <route edges="228373543#3 153341565#0 33854575#0 36819764" id="-3791034#1_to_44409749"/>
    <route edges="4934592 8111025" id="-3791034#1_to_-561862256"/>
    <route edges="13873181#0 238334895#0 4287295#0" id="-3791034#1_to_234244114#2"/>
    <route edges="4934444#6 4934446#0" id="-3791034#1_to_109527590"/>
    <route edges="228373543#3 153341565#0 33854575#0 36819764" id="-3791034#1_to_-44398141#1"/>
    <route edges="228373543#3 153341565#0 33854575#0 36819764" id="-3791034#1_to_44398145"/>
    <route edges="13873181#0 238334895#0 -44398171#1" id="-3791034#1_to_368646804#0"/>
    <route edges="228373543#3 153341565#0 33854575#0 36819764" id="-3791034#1_to_-32631389#0"/>
    <route edges="4934592 8111025" id="-3791034#1_to_110403094#1"/>
    <route edges="228373543#3 153341565#0 33854575#0 36819764" id="-3791034#1_to_44436781#2"/>
    <route edges="228373543#3 153341565#0 33854575#0 36819764" id="-3791034#1_to_44368510"/>
    <route edges="4934592 8111025" id="-3791034#1_to_44409754"/>
    <route edges="4934592 8111025" id="-3791034#1_to_39371977"/>
    <route edges="228373543#3 153341565#0 33854575#0 36819764" id="-3791034#1_to_-44436781#0"/>
    <route edges="228373543#3 153341565#0 33854575#0 36819764" id="-3791034#1_to_185275576"/>
    <route edges="4934592 4934444#0 4934444#2 4934444#3" id="-3791034#1_to_-38864101"/>
    <route edges="228373543#3 153341565#0 33854575#0 36819764" id="-3791034#1_to_44398143"/>
    <route edges="4934444#6 4934446#0 4934446#2 4934446#3" id="-3791034#1_to_37811518"/>
    <route edges="228373543#3 153341565#0 33854575#0 36819764" id="-3791034#1_to_44409737#0"/>
    <route edges="228373543#3" id="-3791034#1_to_153341564#0"/>
    <route edges="228373543#3 153341565#0 33854575#0 36819764" id="-3791034#1_to_8166824#0"/>
    <route edges="4934592 8111025" id="-3791034#1_to_-54690619#1"/>
    <route edges="13873181#0 238334895#0 -44398171#1" id="-3791034#1_to_-368646813#4"/>
    <route edges="228373543#3 153341565#0 33854575#0 36819764" id="-3791034#1_to_44464172#0"/>
    <route edges="4934444#6 4934446#0 4934446#2 4934446#3" id="-3791034#1_to_-638758966"/>
    <route edges="228373543#3 153341565#0 33854575#0" id="-3791034#1_to_32631503#0"/>
    <route edges="13873181#0 238334895#0 4287295#0" id="-3791034#1_to_368646813#11"/>
    <route edges="4934592 8111025" id="-3791034#1_to_561862252#3"/>
    <route edges="228373543#3 153341565#0 33854575#0 36819764" id="-3791034#1_to_-44432110#0"/>
    <route edges="228373543#3 153341565#0 33854575#0 36819764" id="-3791034#1_to_44409739#1"/>
    <route edges="228373543#3 153341565#0 33854575#0 36819764" id="-3791034#1_to_44385284"/>
    <route edges="13873181#0 238334895#0 -44398171#1" id="-3791034#1_to_-44402154#3"/>
    <route edges="4934592 8111025" id="-3791034#1_to_22770494"/>
    <route edges="4934592 8111025" id="-3791034#1_to_-110403089#1"/>
    <route edges="4934444#6 4934446#0 4934446#2 4934446#3" id="-3791034#1_to_-285907434"/>
    <route edges="4934592 8111025" id="-3791034#1_to_22770490#2"/>
    <route edges="4934592 8111025" id="-3791034#1_to_-110403094#0"/>
    <route edges="13873181#0 238334895#0 4287295#0" id="-3791034#1_to_234244112"/>
    <route edges="4934592 4934444#0 4934444#2 4934444#3" id="-3791034#1_to_-38864100#0"/>
    <route edges="228373543#3 153341565#0 33854575#0 36819764" id="-3791034#1_to_-7919280#1"/>
    <route edges="228373543#3 153341565#0 33854575#0 36819764" id="-3791034#1_to_44409759#0"/>
    <route edges="4934444#6 129068838 370154352#0" id="-3791034#1_to_26452028#1"/>
    <route edges="228373543#3 153341565#0 33854575#0 36819764" id="-3791034#1_to_44432110#1"/>
    <route edges="4934592 8111025" id="-3791034#1_to_-110403096"/>
    <route edges="4934592 8111025" id="-3791034#1_to_-44436782#1"/>
    <route edges="4934592 8111025" id="26545993#0_to_78628853"/>
    <route edges="228373543#3" id="26545993#0_to_153341564#0"/>
    <route edges="228373543#3 153341565#0 33854575#0 36819764" id="26545993#0_to_7977023#0"/>
    <route edges="4934444#6 129068838 370154352#0" id="26545993#0_to_-26452028#2"/>
    <route edges="4934592 4934444#0 4934444#2 4934444#3" id="26545993#0_to_-38864100#0"/>
    <route edges="4934592 8111025" id="26545993#0_to_44409754"/>
    <route edges="-4934444#0 -25466631#6 -25466631#3 -612719551#3" id="26545993#0_to_7919275#1"/>
    <route edges="4934592 4934444#0 4934444#2 4934444#3" id="26545993#0_to_-38864101"/>
    <route edges="4934444#6 4934446#0" id="26545993#0_to_84017574"/>
    <route edges="228373543#3 153341565#0 33854575#0 36819764" id="26545993#0_to_8568389#0"/>
    <route edges="228373543#3 153341565#0 -4926189#10 -4926189#8 2294451 612719551#0" id="26545993#0_to_612719551#0"/>
    <route edges="-4934444#0 -25466631#6 -25466631#3 -612719551#3" id="26545993#0_to_-110403094#0"/>
    <route edges="4934592 8111025" id="26545993#0_to_-54690619#1"/>
    <route edges="228373543#3 153341565#0 33854575#0 36819764" id="26545993#0_to_7919287#2"/>
    <route edges="-4934444#0 -25466631#6 -25466631#3 -612719551#3 -563920576 4926189#0 4926189#9 4926209#0 36819763#0" id="26545993#0_to_6653000#2"/>
    <route edges="-4934444#0 -25466631#6 -25466631#3 -612719551#3 -563920576 4926189#0 4926189#9 4926209#0 36819763#0" id="26545993#0_to_30999741#0"/>
    <route edges="-4934444#0 -25466631#6 -25466631#3 -612719551#3" id="26545993#0_to_-7919286#1"/>
    <route edges="-4934444#0 -25466631#6 -25466631#3 -612719551#3" id="26545993#0_to_-7919284#4"/>
    <route edges="228373543#3 153341565#0 33854575#0 36819764" id="26545993#0_to_-302902115"/>
    <route edges="13873181#0 238334895#0" id="26545993#0_to_238334895#0"/>
    <route edges="4934592 8111025" id="26545993#0_to_38918794#0"/>
    <route edges="4934592 8111025" id="26545993#0_to_-110403096"/>
    <route edges="4934592 8111025" id="26545993#0_to_-22716631#2"/>
    <route edges="4934444#6 4934446#0" id="26545993#0_to_109527590"/>
    <route edges="4934592 8111025" id="26545993#0_to_22770490#2"/>
    <route edges="4934592 8111025" id="26545993#0_to_-156375816#4"/>
    <route edges="-4934444#0 -25466631#6 -25466631#3 -612719551#3 -563920576 4926189#0 4926189#9 4926209#0 36819763#0 44398171#0 -13866426" id="26545993#0_to_-13866426"/>
    <route edges="4934592 8111025" id="26545993#0_to_-561862256"/>
    <route edges="-4934444#0 -25466631#6 -25466631#3 -612719551#3" id="26545993#0_to_44409759#0"/>
    <route edges="4934592 8111025" id="26545993#0_to_39371977"/>
    <route edges="4934444#6 129068838 370154352#0" id="26545993#0_to_26452028#1"/>
    <route edges="4934592 8111025" id="26545993#0_to_110403205#0"/>
    <route edges="-4934444#0 -25466631#6 -25466631#3 -612719551#3" id="26545993#0_to_110403094#1"/>
    <route edges="4934444#6 4934446#0" id="26545993#0_to_-57362816"/>
    <route edges="228373543#3" id="26545993#0_to_-13872818"/>
    <route edges="13873181#0" id="26545993#0_to_40070420#0"/>
    <route edges="-4934444#0 -25466631#6 -25466631#3 -612719551#3 -563920576 4926189#0 4926189#9 4926209#0 36819763#0 44398171#0 4287295#0" id="26545993#0_to_4287295#0"/>
    <route edges="228373543#3 153341565#0 33854575#0 36819764" id="26545993#0_to_116689248#2"/>
    <route edges="4934444#6 129068838 370154352#0" id="26545993#0_to_-360342135#2"/>
    <route edges="4934592 8111025" id="26545993#0_to_368505012"/>
    <route edges="4934592 8111025" id="26545993#0_to_561862252#3"/>
    <route edges="228373543#3 153341565#0 33854575#0" id="26545993#0_to_32631503#0"/>
    <route edges="4934592 8111025" id="26545993#0_to_-110403089#1"/>
    <route edges="4934592 8111025" id="26545993#0_to_22770494"/>
    <route edges="4934444#6 4934446#0 4934446#2 4934446#3" id="26545993#0_to_4926002"/>
    <route edges="4934592 8111025" id="26545993#0_to_-44436782#1"/>
    <route edges="4934592 8111025" id="26545993#0_to_110407380#0"/>
    <route edges="-4934444#0 -25466631#6 -25466631#3 -612719551#3" id="26545993#0_to_631925372#0"/>
    <route edges="13873181#0" id="3716924_to_13873181#0"/>
    <route edges="13873181#0" id="gneE29_to_13873181#0"/>
    <route edges="4934592 4934444#0 4934444#2 4934444#3" id="3792490#0_to_-38864101"/>
    <route edges="4934592 4934444#0 4934444#2 4934444#3 4934444#5 4934444#6 4934446#0" id="3792490#0_to_109527590"/>
    <route edges="4934592 4934444#0 4934444#2 4934444#3 4934444#5 4934444#6 4934446#0 4934446#2 4934446#3" id="3792490#0_to_42879978"/>
    <route edges="13873181#0 238334895#0 -44398171#1" id="3792490#0_to_368646804#0"/>
    <route edges="4934592 4934444#0 4934444#2 4934444#3 4934444#5 4934444#6 4934446#0 4934446#2 4934446#3" id="3792490#0_to_-638758966"/>
    <route edges="228373543#3 153341565#0 33854575#0 36819764" id="3792490#0_to_44409759#0"/>
    <route edges="4934592 4934444#0 4934444#2 4934444#3 4934444#5 4934444#6 129068838 370154352#0" id="3792490#0_to_-26452028#2"/>
    <route edges="228373543#3 153341565#0 33854575#0 36819764" id="3792490#0_to_185275576"/>
    <route edges="4934592 8111025" id="3792490#0_to_22770490#2"/>
    <route edges="228373543#3 153341565#0 33854575#0 36819764" id="3792490#0_to_44385284"/>
    <route edges="228373543#3 153341565#0 33854575#0 36819764" id="3792490#0_to_44436781#2"/>
    <route edges="4934592 8111025" id="3792490#0_to_-110403094#0"/>
    <route edges="4934592 8111025" id="3792490#0_to_78628853"/>
    <route edges="228373543#3 153341565#0 33854575#0 36819764" id="3792490#0_to_44368510"/>
    <route edges="4934592 8111025" id="3792490#0_to_-22716631#2"/>
    <route edges="13873181#0 238334895#0 4287295#0" id="3792490#0_to_44007601#0"/>
    <route edges="228373543#3 153341565#0 33854575#0 36819764" id="3792490#0_to_44409754"/>
    <route edges="4934592 4934444#0 4934444#2 4934444#3 4934444#5 4934444#6 4934446#0 4934446#2 4934446#3" id="3792490#0_to_37811518"/>
    <route edges="228373543#3" id="3792490#0_to_-13872818"/>
    <route edges="228373543#3 153341565#0 33854575#0 36819764" id="3792490#0_to_44402155"/>
    <route edges="4934592 4934444#0 4934444#2 4934444#3 4934444#5 4934444#6 4934446#0 4934446#2 4934446#3" id="3792490#0_to_50502870#2"/>
    <route edges="228373543#3 153341565#0 33854575#0 36819764" id="3792490#0_to_44409741#1"/>
    <route edges="228373543#3 153341565#0 33854575#0 36819764" id="3792490#0_to_44432110#1"/>
    <route edges="4934592 4934444#0 4934444#2 4934444#3 4934444#5 4934444#6 129068838 370154352#0" id="3792490#0_to_26452028#1"/>
    <route edges="4934592 4934444#0 4934444#2 4934444#3 4934444#5" id="3792490#0_to_10575482"/>
    <route edges="228373543#3 153341565#0 33854575#0 36819764" id="3792490#0_to_44409737#0"/>
    <route edges="228373543#3" id="3792490#0_to_153341564#0"/>
    <route edges="13873181#0 238334895#0 4287295#0" id="3792490#0_to_-271494224#3"/>
    <route edges="4934592 4934444#0 4934444#2 4934444#3 4934444#5 4934444#6 4934446#0" id="3792490#0_to_-57362816"/>
    <route edges="4934592 8111025" id="3792490#0_to_110403205#0"/>
    <route edges="4934592 8111025" id="3792490#0_to_-561862256"/>
    <route edges="13873181#0 238334895#0 -44398171#1" id="3792490#0_to_30999741#0"/>
    <route edges="228373543#3 153341565#0 33854575#0 36819764" id="3792490#0_to_44398145"/>
    <route edges="4934592 8111025" id="3792490#0_to_-110403096"/>
    <route edges="4934592 8111025" id="3792490#0_to_38918794#0"/>
    <route edges="13873181#0 238334895#0 4287295#0" id="3792490#0_to_234244112"/>
    <route edges="4934592 8111025" id="3792490#0_to_368505008#3"/>
    <route edges="228373543#3 153341565#0 33854575#0 36819764" id="3792490#0_to_8166824#0"/>
    <route edges="228373543#3 153341565#0 33854575#0 36819764" id="3792490#0_to_-156375816#2"/>
    <route edges="4934592 8111025" id="3792490#0_to_110403094#1"/>
    <route edges="4934592 4934444#0 4934444#2 4934444#3 4934444#5 4934444#6 4934446#0 4934446#2 4934446#3" id="3792490#0_to_36892455"/>
    <route edges="228373543#3 153341565#0 33854575#0 36819764" id="3792490#0_to_-7919280#1"/>
    <route edges="228373543#3 153341565#0 33854575#0 36819764" id="3792490#0_to_44409749"/>
    <route edges="13873181#0 238334895#0 -44398171#1" id="3792490#0_to_-44402154#3"/>
    <route edges="13873181#0 238334895#0 4287295#0" id="3792490#0_to_368646813#11"/>
    <route edges="4934592 8111025" id="3792490#0_to_110407380#0"/>
    <route edges="228373543#3 153341565#0 33854575#0 36819764" id="3792490#0_to_-44398141#1"/>
    <route edges="228373543#3 153341565#0 33854575#0 36819764" id="3792490#0_to_-44436782#1"/>
    <route edges="228373543#3 153341565#0 33854575#0 36819764" id="3792490#0_to_-44436781#0"/>
    <route edges="4934592 4934444#0 4934444#2 4934444#3 4934444#5 4934444#6 4934446#0 4934446#2 4934446#3" id="3792490#0_to_129298405"/>
    <route edges="13873181#0 238334895#0 4287295#0" id="3792490#0_to_234244114#2"/>
    <route edges="4934592 4934444#0 4934444#2 4934444#3" id="3792490#0_to_-38864100#0"/>
    <route edges="228373543#3 153341565#0 33854575#0 36819764" id="3792490#0_to_-44432110#0"/>
    <route edges="228373543#3 153341565#0 33854575#0 36819764" id="3792490#0_to_44398143"/>
    <route edges="228373543#3 153341565#0 33854575#0 36819764" id="3792490#0_to_44445666"/>
    <route edges="228373543#3 153341565#0 33854575#0 36819764" id="3792490#0_to_44385285"/>
    <route edges="228373543#3 153341565#0 33854575#0" id="3792490#0_to_32631503#0"/>
    <route edges="4934592 8111025" id="3792490#0_to_39371977"/>
    <route edges="228373543#3 153341565#0 33854575#0 36819764" id="3792490#0_to_-32631389#0"/>
    <route edges="4934592 8111025" id="3792490#0_to_22770494"/>
    <route edges="4934592 4934444#0 4934444#2 4934444#3 4934444#5 4934444#6 4934446#0 4934446#2 4934446#3" id="3792490#0_to_-285907434"/>
    <route edges="4934592 4934444#0 4934444#2 4934444#3 4934444#5 4934444#6 4934446#0 4934446#2 4934446#3" id="3792490#0_to_50502873"/>
    <route edges="4934592 8111025" id="3792490#0_to_-54690619#1"/>
    <route edges="4934592 8111025" id="3792490#0_to_-110403089#1"/>
    <route edges="228373543#3 153341565#0 33854575#0 36819764" id="3792490#0_to_44409739#1"/>
    <route edges="228373543#3 153341565#0 33854575#0 36819764" id="3792490#0_to_44464172#0"/>
    <route edges="4934592 4934444#0 4934444#2 4934444#3 4934444#5 4934444#6 4934446#0" id="3792490#0_to_84017574"/>
    <route edges="4934592 8111025" id="3792490#0_to_561862252#3"/>
    <route edges="4934592 8111025" id="3792490#0_to_-110445434"/>
    <route edges="4934592 4934444#0" id="49961185_to_7415907#0"/>
    <route edges="4934592 4934444#0 4934444#2" id="49961185_to_4934444#2"/>
    <route edges="4934592 8111025" id="49961185_to_48520199"/>
    <route edges="4934592 4934444#0" id="49961185_to_147463637#0"/>
    <route edges="4934592 8111025" id="49961185_to_-145571187"/>
    <route edges="13873181#0 238334895#0 4287295#0" id="3791745#0_to_44007601#0"/>
    <route edges="13873181#0 238334895#0 4287295#0" id="3791745#0_to_368646813#5"/>
    <route edges="13873181#0 238334895#0 -44398171#1" id="3791745#0_to_6653000#4"/>
    <route edges="13873181#0 238334895#0 -44398171#1" id="3791745#0_to_30999741#0"/>
    <route edges="13873181#0 238334895#0 -44398171#1" id="3791745#0_to_-44402154#3"/>
    <route edges="13873181#0 238334895#0 -44398171#1" id="-15464769#0_to_7919284#0"/>
    <route edges="13873181#0 238334895#0 -44398171#1" id="-15464769#0_to_368646804#0"/>
    <route edges="4934592 4934444#0" id="24973956#0_to_10575469#0"/>
    <route edges="228373543#3 153341565#0 -4926189#10 -4926189#8 2294451 612719551#0 25466631#0" id="24973956#0_to_-23501248#8"/>
    <route edges="4934592 8111025" id="24973956#0_to_-128521573#0"/>
    <route edges="4934592 8111025" id="24973956#0_to_9084588#0"/>
    <route edges="13873181#0 238334895#0 -44398171#1" id="24973956#0_to_6653000#0"/>
    <route edges="4934592 4934444#0" id="24973956#0_to_38864104"/>
    <route edges="228373543#3 153341565#0 -4926189#10 -4926189#8 2294451 612719551#0 25466631#0 25466631#4" id="24973956#0_to_25466631#4"/>
    <route edges="4934592 8111025" id="24973956#0_to_238740929"/>
    <route edges="228373543#3 153341565#0 33854575#0 36819764" id="24973956#0_to_7919275#4"/>
    <route edges="228373543#3 153341565#0 33854575#0 36819764" id="24973956#0_to_-116689248#2"/>
    <route edges="4934592 8111025" id="24973956#0_to_-13983801#2"/>
    <route edges="228373543#3" id="24973956#0_to_153341564#0"/>
    <route edges="228373543#3" id="24973956#0_to_-13872818"/>
    <route edges="4934592 4934444#0 4934444#2 4934444#3 4934444#5" id="24973956#0_to_10575480#0"/>
    <route edges="4934592 4934444#0 4934444#2 4934444#3" id="24973956#0_to_-38864100#1"/>
    <route edges="4934592 8111025" id="24973956#0_to_128521573#1"/>
    <route edges="228373543#3 153341565#0 33854575#0 36819764" id="24973956#0_to_-32631389#3"/>
    <route edges="228373543#3 153341565#0 33854575#0 36819764" id="24973956#0_to_-7977023#4"/>
    <route edges="228373543#3 153341565#0 33854575#0 36819764" id="24973956#0_to_44409756"/>
    <route edges="228373543#3 153341565#0 33854575#0 36819764" id="24973956#0_to_7919283#0"/>
    <route edges="228373543#3 153341565#0 33854575#0 36819764" id="24973956#0_to_44398142#0"/>
    <route edges="228373543#3 153341565#0 -4926189#10 -4926189#8 33854576" id="24973956#0_to_-4926120#3"/>
    <route edges="4934592 4934444#0" id="24973956#0_to_10575482"/>
    <route edges="4934592 8111025" id="24973956#0_to_-128521564"/>
    <route edges="4934592 8111025" id="24973956#0_to_38918794#0"/>
    <route edges="13873181#0 238334895#0 4287295#0" id="24973956#0_to_4287295#3"/>
    <route edges="4934592 4934444#0 4934444#2 4934444#3" id="24973956#0_to_-38864101"/>
    <route edges="4934592 8111025" id="24973956#0_to_156375816#1"/>
    <route edges="13873181#0 238334895#0 4287295#0" id="24973956#0_to_23307145#0"/>
    <route edges="4934592 8111025" id="24973956#0_to_-368505007#3"/>
    <route edges="4934592 8111025" id="24973956#0_to_-128521573#1"/>
    <route edges="228373543#3 153341565#0 33854575#0 36819764" id="24973956#0_to_44409739#0"/>