<?xml version='1.0' encoding='UTF-8'?>
<configuration xmlns:xsi="http://www.w3.org/2001/XMLSchema-instance" xsi:noNamespaceSchemaLocation="http://sumo.dlr.de/xsd/sumoConfiguration.xsd">
  <input>
    <net-file value="1x1grid.net.xml"/>
    <route-files value="1x1grid.rou.xml"/>
    <additional-files value="1x1grid.add.xml"/>
  </input>
  <time>
    <begin value="0"/>
  </time>
</configuration>
