<?xml version='1.0' encoding='UTF-8'?>
<configuration xmlns:xsi="http://www.w3.org/2001/XMLSchema-instance" xsi:noNamespaceSchemaLocation="http://sumo.dlr.de/xsd/sumoConfiguration.xsd">
  <input>
    <net-file value="CoTV_1x6grid.net.xml"/>
    <route-files value="CoTV_1x6grid.rou.xml"/>
    <additional-files value="CoTV_1x6grid.add.xml"/>
  </input>
  <time>
    <begin value="0"/>
  </time>
</configuration>
