<?xml version="1.0" encoding="UTF-8"?>

<!-- generated on 2023-02-08 08:43:53 by Eclipse SUMO netconvert Version 1.14.1
<configuration xmlns:xsi="http://www.w3.org/2001/XMLSchema-instance" xsi:noNamespaceSchemaLocation="http://sumo.dlr.de/xsd/netconvertConfiguration.xsd">

    <input>
        <sumo-net-file value="DCC.net.xml"/>
    </input>

    <output>
        <output-file value="selected1km/selected1km.net.xml"/>
        <output.street-names value="true"/>
    </output>

    <processing>
        <geometry.min-radius.fix.railways value="false"/>
        <geometry.max-grade.fix value="false"/>
        <offset.disable-normalization value="true"/>
        <lefthand value="true"/>
    </processing>

    <edge_removal>
        <keep-edges.input-file value="selected1km/selected1km.txt"/>
    </edge_removal>

    <junctions>
        <no-turnarounds value="true"/>
        <junctions.corner-detail value="5"/>
        <junctions.limit-turn-speed value="5.5"/>
        <rectangular-lane-cut value="false"/>
    </junctions>

    <pedestrian>
        <walkingareas value="false"/>
    </pedestrian>

</configuration>
-->

<net version="1.9" junctionCornerDetail="5" lefthand="true" limitTurnSpeed="5.50" xmlns:xsi="http://www.w3.org/2001/XMLSchema-instance" xsi:noNamespaceSchemaLocation="http://sumo.dlr.de/xsd/net_file.xsd">

    <location netOffset="-677749.85,-5911444.78" convBoundary="4086.88,1466.99,5491.17,2740.13" origBoundary="-6.368224,53.318846,-6.186539,53.396212" projParameter="+proj=utm +zone=29 +ellps=WGS84 +datum=WGS84 +units=m +no_defs"/>

    <type id="highway.bridleway" priority="1" numLanes="1" speed="2.78" allow="pedestrian" oneway="1" width="2.00"/>
    <type id="highway.bus_guideway" priority="1" numLanes="1" speed="27.78" allow="bus" oneway="1"/>
    <type id="highway.cycleway" priority="1" numLanes="1" speed="8.33" allow="bicycle" oneway="0" width="1.00"/>
    <type id="highway.footway" priority="1" numLanes="1" speed="2.78" allow="pedestrian" oneway="1" width="2.00"/>
    <type id="highway.ford" priority="1" numLanes="1" speed="2.78" allow="army" oneway="0"/>
    <type id="highway.living_street" priority="2" numLanes="1" speed="2.78" disallow="tram rail_urban rail rail_electric ship" oneway="0"/>
    <type id="highway.motorway" priority="14" numLanes="2" speed="39.44" allow="private emergency authority army vip passenger hov taxi bus coach delivery truck trailer motorcycle evehicle custom1 custom2" oneway="1"/>
    <type id="highway.motorway_link" priority="9" numLanes="1" speed="22.22" allow="private emergency authority army vip passenger hov taxi bus coach delivery truck trailer motorcycle evehicle custom1 custom2" oneway="1"/>
    <type id="highway.path" priority="1" numLanes="1" speed="2.78" allow="pedestrian bicycle" oneway="1" width="2.00"/>
    <type id="highway.pedestrian" priority="1" numLanes="1" speed="2.78" allow="pedestrian" oneway="1" width="2.00"/>
    <type id="highway.primary" priority="12" numLanes="2" speed="27.78" disallow="tram rail_urban rail rail_electric ship" oneway="0"/>
    <type id="highway.primary_link" priority="7" numLanes="1" speed="22.22" disallow="tram rail_urban rail rail_electric ship" oneway="0"/>
    <type id="highway.raceway" priority="15" numLanes="2" speed="83.33" allow="vip" oneway="0"/>
    <type id="highway.residential" priority="3" numLanes="1" speed="13.89" disallow="tram rail_urban rail rail_electric ship" oneway="0"/>
    <type id="highway.secondary" priority="11" numLanes="2" speed="27.78" disallow="tram rail_urban rail rail_electric ship" oneway="0"/>
    <type id="highway.secondary_link" priority="6" numLanes="1" speed="22.22" disallow="tram rail_urban rail rail_electric ship" oneway="0"/>
    <type id="highway.service" priority="1" numLanes="1" speed="5.56" allow="pedestrian delivery bicycle" oneway="0"/>
    <type id="highway.stairs" priority="1" numLanes="1" speed="1.39" allow="pedestrian" oneway="1" width="2.00"/>
    <type id="highway.step" priority="1" numLanes="1" speed="1.39" allow="pedestrian" oneway="1" width="2.00"/>
    <type id="highway.steps" priority="1" numLanes="1" speed="1.39" allow="pedestrian" oneway="1" width="2.00"/>
    <type id="highway.tertiary" priority="10" numLanes="1" speed="22.22" disallow="tram rail_urban rail rail_electric ship" oneway="0"/>
    <type id="highway.tertiary_link" priority="5" numLanes="1" speed="22.22" disallow="tram rail_urban rail rail_electric ship" oneway="0"/>
    <type id="highway.track" priority="1" numLanes="1" speed="5.56" disallow="tram rail_urban rail rail_electric ship" oneway="0"/>
    <type id="highway.trunk" priority="13" numLanes="2" speed="27.78" disallow="pedestrian bicycle tram rail_urban rail rail_electric ship" oneway="0"/>
    <type id="highway.trunk_link" priority="8" numLanes="1" speed="22.22" disallow="pedestrian bicycle tram rail_urban rail rail_electric ship" oneway="0"/>
    <type id="highway.unclassified" priority="4" numLanes="1" speed="13.89" disallow="tram rail_urban rail rail_electric ship" oneway="0"/>
    <type id="highway.unsurfaced" priority="1" numLanes="1" speed="8.33" disallow="tram rail_urban rail rail_electric ship" oneway="0"/>
    <type id="railway.light_rail" priority="19" numLanes="1" speed="27.78" allow="rail_urban" oneway="1"/>
    <type id="railway.preserved" priority="16" numLanes="1" speed="27.78" allow="rail" oneway="1"/>
    <type id="railway.rail" priority="20" numLanes="1" speed="83.33" allow="rail rail_electric" oneway="1"/>
    <type id="railway.subway" priority="18" numLanes="1" speed="27.78" allow="rail_urban" oneway="1"/>
    <type id="railway.tram" priority="17" numLanes="1" speed="13.89" allow="tram" oneway="1"/>

    <edge id=":130159360_0" function="internal">
        <lane id=":130159360_0_0" index="0" disallow="tram rail_urban rail rail_electric rail_fast ship" speed="8.33" length="9.55" shape="4458.25,1694.87 4458.15,1697.70 4458.12,1699.64 4458.18,1701.58 4458.32,1704.41"/>
    </edge>
    <edge id=":130159360_1" function="internal">
        <lane id=":130159360_1_0" index="0" disallow="tram rail_urban rail rail_electric rail_fast ship" speed="6.02" length="7.93" shape="4458.25,1694.87 4458.36,1697.67 4458.92,1699.65 4459.93,1700.83 4461.40,1701.19"/>
    </edge>
    <edge id=":130159360_2" function="internal">
        <lane id=":130159360_2_0" index="0" disallow="tram rail_urban rail rail_electric rail_fast ship" speed="6.07" length="7.91" shape="4461.33,1697.99 4459.89,1698.42 4458.91,1699.64 4458.38,1701.63 4458.32,1704.41"/>
    </edge>
    <edge id=":130159362_0" function="internal">
        <lane id=":130159362_0_0" index="0" disallow="tram rail_urban rail rail_electric rail_fast ship" speed="3.65" length="4.67" shape="4532.45,1699.25 4533.63,1698.42 4534.01,1697.61 4533.59,1696.82 4532.37,1696.05"/>
    </edge>
    <edge id=":133307283_0" function="internal">
        <lane id=":133307283_0_0" index="0" disallow="tram rail_urban rail rail_electric rail_fast ship" speed="7.31" length="10.73" shape="4317.63,1730.42 4316.49,1733.56 4314.91,1735.69 4312.90,1736.81 4310.46,1736.92"/>
    </edge>
    <edge id=":133307283_1" function="internal">
        <lane id=":133307283_1_0" index="0" disallow="tram rail_urban rail rail_electric rail_fast ship" speed="8.33" length="12.91" shape="4317.63,1730.42 4314.52,1742.95"/>
    </edge>
    <edge id=":133307283_2" function="internal">
        <lane id=":133307283_2_0" index="0" disallow="tram rail_urban rail rail_electric rail_fast ship" speed="7.79" length="14.09" shape="4317.63,1730.42 4317.82,1732.74 4319.64,1734.72 4323.10,1736.34 4328.19,1737.61"/>
    </edge>
    <edge id=":133307283_3" function="internal">
        <lane id=":133307283_3_0" index="0" disallow="tram rail_urban rail rail_electric rail_fast ship" speed="8.03" length="13.74" shape="4317.63,1743.69 4318.98,1740.43 4321.20,1738.32 4324.27,1737.39 4328.19,1737.61"/>
    </edge>
    <edge id=":133307283_4" function="internal">
        <lane id=":133307283_4_0" index="0" disallow="tram rail_urban rail rail_electric rail_fast ship" speed="8.33" length="13.10" shape="4317.63,1743.69 4318.86,1740.72 4320.56,1738.43 4322.34,1735.85 4323.84,1732.00"/>
        <lane id=":133307283_4_1" index="1" disallow="tram rail_urban rail rail_electric rail_fast ship" speed="8.33" length="13.10" shape="4317.63,1743.69 4320.74,1731.21"/>
    </edge>
    <edge id=":133307283_6" function="internal">
        <lane id=":133307283_6_0" index="0" disallow="tram rail_urban rail rail_electric rail_fast ship" speed="6.99" length="11.32" shape="4317.63,1743.69 4317.68,1741.20 4316.50,1739.24 4314.10,1737.81 4310.46,1736.92"/>
    </edge>
    <edge id=":133307292_0" function="internal">
        <lane id=":133307292_0_0" index="0" disallow="tram rail_urban rail rail_electric rail_fast ship" speed="6.78" length="7.84" shape="4456.21,1755.41 4458.38,1755.79 4460.05,1756.66 4461.23,1758.02 4461.92,1759.85"/>
    </edge>
    <edge id=":133307292_1" function="internal">
        <lane id=":133307292_1_0" index="0" disallow="tram rail_urban rail rail_electric rail_fast ship" speed="8.33" length="9.07" shape="4460.78,1750.88 4460.92,1753.57 4461.08,1755.40 4461.38,1757.22 4461.92,1759.85"/>
    </edge>
    <edge id=":133307321_0" function="internal">
        <lane id=":133307321_0_0" index="0" disallow="tram rail_urban rail rail_electric rail_fast ship" speed="8.33" length="14.63" shape="4419.61,1815.20 4418.13,1811.86 4417.21,1808.37 4416.54,1804.78 4415.79,1801.14"/>
    </edge>
    <edge id=":133307321_1" function="internal">
        <lane id=":133307321_1_0" index="0" disallow="tram rail_urban rail rail_electric rail_fast ship" speed="8.33" length="14.57" shape="4419.61,1815.20 4417.34,1812.05 4414.65,1809.70 4411.52,1808.16 4407.97,1807.43"/>
    </edge>
    <edge id=":133307321_2" function="internal">
        <lane id=":133307321_2_0" index="0" disallow="tram rail_urban rail rail_electric rail_fast ship" speed="8.33" length="11.09" shape="4407.69,1810.61 4411.01,1811.20 4413.59,1812.32 4415.44,1813.96 4416.54,1816.13"/>
    </edge>
    <edge id=":133307321_3" function="internal">
        <lane id=":133307321_3_0" index="0" disallow="tram rail_urban rail rail_electric rail_fast ship" speed="7.54" length="15.65" shape="4407.69,1810.61 4412.21,1810.38 4415.06,1808.72 4416.26,1805.64 4415.79,1801.14"/>
    </edge>
    <edge id=":133307321_4" function="internal">
        <lane id=":133307321_4_0" index="0" disallow="tram rail_urban rail rail_electric rail_fast ship" speed="5.91" length="9.10" shape="4412.68,1801.92 4412.95,1804.53 4412.26,1806.32 4410.60,1807.29 4407.97,1807.43"/>
    </edge>
    <edge id=":133307321_5" function="internal">
        <lane id=":133307321_5_0" index="0" disallow="tram rail_urban rail rail_electric rail_fast ship" speed="8.33" length="14.73" shape="4412.68,1801.92 4416.54,1816.13"/>
    </edge>
    <edge id=":133307348_0" function="internal">
        <lane id=":133307348_0_0" index="0" disallow="tram rail_urban rail rail_electric rail_fast ship" speed="3.65" length="4.67" shape="4378.22,1804.79 4376.96,1805.48 4376.49,1806.24 4376.81,1807.07 4377.94,1807.97"/>
    </edge>
    <edge id=":134850078_0" function="internal">
        <lane id=":134850078_0_0" index="0" disallow="tram rail_urban rail rail_electric rail_fast ship" speed="8.33" length="0.92" shape="4958.22,1999.39 4958.12,1999.64 4958.03,1999.81 4957.90,1999.94 4957.69,2000.11"/>
    </edge>
    <edge id=":135109478_0" function="internal">
        <lane id=":135109478_0_0" index="0" disallow="tram rail_urban rail rail_electric rail_fast ship" speed="6.14" length="7.62" shape="4587.11,2294.41 4588.13,2293.55 4588.56,2292.11 4588.39,2290.07 4587.62,2287.44"/>
    </edge>
    <edge id=":135109491_0" function="internal">
        <lane id=":135109491_0_0" index="0" disallow="tram rail_urban rail rail_electric rail_fast ship" speed="8.33" length="13.68" shape="4554.50,2233.11 4550.37,2234.48 4547.56,2236.25 4545.12,2238.00 4542.10,2239.32"/>
        <lane id=":135109491_0_1" index="1" disallow="tram rail_urban rail rail_electric rail_fast ship" speed="8.33" length="13.68" shape="4555.14,2236.24 4542.10,2239.32"/>
    </edge>
    <edge id=":135109491_2" function="internal">
        <lane id=":135109491_2_0" index="0" disallow="tram rail_urban rail rail_electric rail_fast ship" speed="7.30" length="13.13" shape="4555.14,2236.24 4551.58,2237.49 4549.48,2239.50 4548.82,2242.27 4549.61,2245.79"/>
    </edge>
    <edge id=":135109491_3" function="internal">
        <lane id=":135109491_3_0" index="0" disallow="tram rail_urban rail rail_electric rail_fast ship" speed="8.03" length="13.12" shape="4552.60,2244.63 4550.87,2241.53 4548.54,2239.62 4545.62,2238.88 4542.10,2239.32"/>
    </edge>
    <edge id=":135109491_4" function="internal">
        <lane id=":135109491_4_0" index="0" disallow="tram rail_urban rail rail_electric rail_fast ship" speed="6.53" length="8.35" shape="4542.93,2242.41 4545.17,2242.13 4547.03,2242.60 4548.51,2243.82 4549.61,2245.79"/>
    </edge>
    <edge id=":135109495_0" function="internal">
        <lane id=":135109495_0_0" index="0" disallow="tram rail_urban rail rail_electric rail_fast ship" speed="7.38" length="10.56" shape="4569.64,2238.15 4568.16,2234.89 4566.50,2232.68 4564.65,2231.54 4562.61,2231.44"/>
        <lane id=":135109495_0_1" index="1" disallow="tram rail_urban rail rail_electric rail_fast ship" speed="6.54" length="8.09" shape="4569.64,2238.15 4568.62,2236.22 4567.22,2234.99 4565.43,2234.44 4563.26,2234.58"/>
    </edge>
    <edge id=":135109515_0" function="internal">
        <lane id=":135109515_0_0" index="0" disallow="tram rail_urban rail rail_electric rail_fast ship" speed="3.65" length="4.67" shape="4475.73,2189.08 4474.50,2188.34 4473.60,2188.33 4473.05,2189.03 4472.85,2190.46"/>
    </edge>
    <edge id=":135109534_0" function="internal">
        <lane id=":135109534_0_0" index="0" disallow="tram rail_urban rail rail_electric rail_fast ship" speed="8.33" length="14.80" shape="4338.25,2164.54 4329.35,2176.37"/>
    </edge>
    <edge id=":135109534_1" function="internal">
        <lane id=":135109534_1_0" index="0" disallow="tram rail_urban rail rail_electric rail_fast ship" speed="7.87" length="14.50" shape="4338.25,2164.54 4336.17,2167.98 4335.77,2171.19 4337.03,2174.16 4339.97,2176.90"/>
    </edge>
    <edge id=":135109534_2" function="internal">
        <lane id=":135109534_2_0" index="0" disallow="tram rail_urban rail rail_electric rail_fast ship" speed="6.34" length="9.04" shape="4341.80,2174.28 4339.97,2172.57 4339.18,2170.71 4339.43,2168.72 4340.73,2166.57"/>
    </edge>
    <edge id=":135109534_3" function="internal">
        <lane id=":135109534_3_0" index="0" disallow="tram rail_urban rail rail_electric rail_fast ship" speed="8.04" length="14.41" shape="4341.80,2174.28 4338.23,2172.47 4334.96,2172.21 4332.00,2173.51 4329.35,2176.37"/>
    </edge>
    <edge id=":135109534_4" function="internal">
        <lane id=":135109534_4_0" index="0" disallow="tram rail_urban rail rail_electric rail_fast ship" speed="6.56" length="9.23" shape="4331.99,2178.18 4333.68,2176.37 4335.57,2175.55 4337.67,2175.73 4339.97,2176.90"/>
    </edge>
    <edge id=":135109534_5" function="internal">
        <lane id=":135109534_5_0" index="0" disallow="tram rail_urban rail rail_electric rail_fast ship" speed="8.33" length="14.53" shape="4331.99,2178.18 4340.73,2166.57"/>
    </edge>
    <edge id=":135109542_0" function="internal">
        <lane id=":135109542_0_0" index="0" disallow="tram rail_urban rail rail_electric rail_fast ship" speed="6.48" length="9.06" shape="4292.25,2183.58 4289.76,2183.49 4287.91,2182.63 4286.69,2180.99 4286.13,2178.57"/>
    </edge>
    <edge id=":135109542_1" function="internal">
        <lane id=":135109542_1_0" index="0" disallow="tram rail_urban rail rail_electric rail_fast ship" speed="7.95" length="14.30" shape="4292.25,2183.58 4288.44,2184.55 4285.88,2186.50 4284.59,2189.45 4284.55,2193.38"/>
    </edge>
    <edge id=":135109542_2" function="internal">
        <lane id=":135109542_2_0" index="0" disallow="tram rail_urban rail rail_electric rail_fast ship" speed="6.45" length="9.03" shape="4287.72,2192.95 4287.75,2190.47 4288.57,2188.61 4290.18,2187.38 4292.59,2186.77"/>
    </edge>
    <edge id=":135109542_3" function="internal">
        <lane id=":135109542_3_0" index="0" disallow="tram rail_urban rail rail_electric rail_fast ship" speed="8.33" length="14.47" shape="4287.72,2192.95 4286.13,2178.57"/>
    </edge>
    <edge id=":135109542_4" function="internal">
        <lane id=":135109542_4_0" index="0" disallow="tram rail_urban rail rail_electric rail_fast ship" speed="8.33" length="14.69" shape="4279.75,2179.13 4281.38,2193.80"/>
        <lane id=":135109542_4_1" index="1" disallow="tram rail_urban rail rail_electric rail_fast ship" speed="8.33" length="14.69" shape="4282.94,2178.85 4284.55,2193.38"/>
    </edge>
    <edge id=":135109542_6" function="internal">
        <lane id=":135109542_6_0" index="0" disallow="tram rail_urban rail rail_electric rail_fast ship" speed="7.98" length="4.25" shape="4282.94,2178.85 4283.83,2182.67 4284.03,2182.93"/>
    </edge>
    <edge id=":135109542_7" function="internal">
        <lane id=":135109542_7_0" index="0" disallow="tram rail_urban rail rail_electric rail_fast ship" speed="7.98" length="10.04" shape="4284.03,2182.93 4285.74,2185.26 4288.66,2186.62 4292.59,2186.77"/>
    </edge>
    <edge id=":1426100554_0" function="internal">
        <lane id=":1426100554_0_0" index="0" disallow="tram rail_urban rail rail_electric rail_fast ship" speed="8.33" length="8.48" shape="4590.63,2570.87 4589.81,2572.89 4590.37,2574.54 4591.33,2576.34 4591.70,2578.83"/>
    </edge>
    <edge id=":1426100554_1" function="internal">
        <lane id=":1426100554_1_0" index="0" disallow="tram rail_urban rail rail_electric rail_fast ship" speed="7.29" length="7.27" shape="4584.85,2572.70 4586.55,2574.01 4587.73,2575.43 4588.39,2576.95 4588.51,2578.57"/>
    </edge>
    <edge id=":1426100554_2" function="internal">
        <lane id=":1426100554_2_0" index="0" disallow="tram rail_urban rail rail_electric rail_fast ship" speed="7.60" length="10.53" shape="4584.85,2572.70 4587.35,2573.85 4589.78,2574.03 4592.14,2573.26 4594.41,2571.53"/>
    </edge>
    <edge id=":1430847303_0" function="internal">
        <lane id=":1430847303_0_0" index="0" disallow="tram rail_urban rail rail_electric rail_fast ship" speed="8.09" length="16.79" shape="5156.41,2357.53 5152.79,2359.58 5151.10,2362.55 5151.34,2366.46 5153.52,2371.29"/>
        <lane id=":1430847303_0_1" index="1" disallow="tram rail_urban rail rail_electric rail_fast ship" speed="6.63" length="10.86" shape="5157.45,2360.55 5155.33,2361.83 5154.42,2363.77 5154.74,2366.38 5156.27,2369.66"/>
    </edge>
    <edge id=":1430847303_2" function="internal">
        <lane id=":1430847303_2_0" index="0" disallow="tram rail_urban rail rail_electric rail_fast ship" speed="7.02" length="8.79" shape="5146.32,2367.60 5148.36,2367.34 5150.23,2367.87 5151.95,2369.18 5153.52,2371.29"/>
    </edge>
    <edge id=":1430847303_3" function="internal">
        <lane id=":1430847303_3_0" index="0" disallow="tram rail_urban rail rail_electric rail_fast ship" speed="8.33" length="13.26" shape="5145.37,2364.55 5149.41,2363.80 5152.52,2363.94 5155.34,2364.14 5158.50,2363.57"/>
    </edge>
    <edge id=":1431043203_0" function="internal">
        <lane id=":1431043203_0_0" index="0" disallow="tram rail_urban rail rail_electric rail_fast ship" speed="8.33" length="14.43" shape="4874.94,2355.40 4878.43,2369.40"/>
    </edge>
    <edge id=":1431043203_1" function="internal">
        <lane id=":1431043203_1_0" index="0" disallow="tram rail_urban rail rail_electric rail_fast ship" speed="7.25" length="11.80" shape="4874.94,2355.40 4876.20,2359.07 4877.89,2361.47 4880.02,2362.60 4882.58,2362.45"/>
        <lane id=":1431043203_1_1" index="1" disallow="tram rail_urban rail rail_electric rail_fast ship" speed="6.43" length="9.03" shape="4874.94,2355.40 4875.86,2357.71 4877.30,2359.14 4879.25,2359.70 4881.72,2359.37"/>
    </edge>
    <edge id=":1448436_0" function="internal">
        <lane id=":1448436_0_0" index="0" disallow="tram rail_urban rail rail_electric rail_fast ship" speed="7.32" length="11.70" shape="4346.61,2591.70 4346.03,2595.51 4344.83,2598.19 4342.99,2599.73 4340.51,2600.13"/>
    </edge>
    <edge id=":1448436_1" function="internal">
        <lane id=":1448436_1_0" index="0" disallow="tram rail_urban rail rail_electric rail_fast ship" speed="8.33" length="21.95" shape="4346.61,2591.70 4346.97,2598.37 4348.93,2603.24 4352.50,2606.30 4357.66,2607.58"/>
        <lane id=":1448436_1_1" index="1" disallow="tram rail_urban rail rail_electric rail_fast ship" speed="8.33" length="16.83" shape="4349.80,2591.88 4350.05,2597.15 4351.47,2600.98 4354.07,2603.40 4357.86,2604.38"/>
    </edge>
    <edge id=":1448436_3" function="internal">
        <lane id=":1448436_3_0" index="0" disallow="tram rail_urban rail rail_electric rail_fast ship" speed="6.52" length="9.03" shape="4358.26,2597.99 4355.83,2597.49 4354.15,2596.34 4353.20,2594.53 4352.99,2592.06"/>
    </edge>
    <edge id=":1448436_4" function="internal">
        <lane id=":1448436_4_0" index="0" disallow="tram rail_urban rail rail_electric rail_fast ship" speed="8.33" length="17.58" shape="4358.06,2601.19 4340.51,2600.13"/>
    </edge>
    <edge id=":1448436_5" function="internal">
        <lane id=":1448436_5_0" index="0" disallow="tram rail_urban rail rail_electric rail_fast ship" speed="8.33" length="17.57" shape="4340.13,2606.52 4357.66,2607.58"/>
        <lane id=":1448436_5_1" index="1" disallow="tram rail_urban rail rail_electric rail_fast ship" speed="8.33" length="17.57" shape="4340.32,2603.32 4357.86,2604.38"/>
    </edge>
    <edge id=":1448442_0" function="internal">
        <lane id=":1448442_0_0" index="0" disallow="tram rail_urban rail rail_electric rail_fast ship" speed="6.46" length="9.08" shape="4295.47,2208.28 4292.99,2208.32 4291.10,2207.55 4289.82,2205.95 4289.14,2203.54"/>
    </edge>
    <edge id=":1448442_1" function="internal">
        <lane id=":1448442_1_0" index="0" disallow="tram rail_urban rail rail_electric rail_fast ship" speed="8.33" length="17.68" shape="4295.47,2208.28 4277.95,2210.60"/>
    </edge>
    <edge id=":1448442_2" function="internal">
        <lane id=":1448442_2_0" index="0" disallow="tram rail_urban rail rail_electric rail_fast ship" speed="7.46" length="11.83" shape="4295.47,2208.28 4291.69,2209.24 4289.09,2210.71 4287.65,2212.68 4287.39,2215.17"/>
    </edge>
    <edge id=":1448442_3" function="internal">
        <lane id=":1448442_3_0" index="0" disallow="tram rail_urban rail rail_electric rail_fast ship" speed="8.33" length="11.34" shape="4290.57,2214.79 4289.14,2203.54"/>
    </edge>
    <edge id=":1448442_4" function="internal">
        <lane id=":1448442_4_0" index="0" disallow="tram rail_urban rail rail_electric rail_fast ship" speed="8.13" length="2.38" shape="4290.57,2214.79 4289.60,2212.61"/>
    </edge>
    <edge id=":1448442_7" function="internal">
        <lane id=":1448442_7_0" index="0" disallow="tram rail_urban rail rail_electric rail_fast ship" speed="8.13" length="12.23" shape="4289.60,2212.61 4289.53,2212.45 4287.08,2210.98 4283.22,2210.36 4277.95,2210.60"/>
    </edge>
    <edge id=":1448442_5" function="internal">
        <lane id=":1448442_5_0" index="0" disallow="tram rail_urban rail rail_electric rail_fast ship" speed="6.46" length="9.03" shape="4282.80,2204.39 4282.78,2206.87 4281.96,2208.73 4280.35,2209.97 4277.95,2210.60"/>
    </edge>
    <edge id=":1448442_6" function="internal">
        <lane id=":1448442_6_0" index="0" disallow="tram rail_urban rail rail_electric rail_fast ship" speed="8.33" length="11.29" shape="4285.97,2203.96 4287.39,2215.17"/>
    </edge>
    <edge id=":1488943160_0" function="internal">
        <lane id=":1488943160_0_0" index="0" disallow="tram rail_urban rail rail_electric rail_fast ship" speed="3.65" length="4.67" shape="4694.60,2512.36 4695.35,2511.13 4695.38,2510.24 4694.68,2509.68 4693.26,2509.46"/>
    </edge>
    <edge id=":1489245550_0" function="internal">
        <lane id=":1489245550_0_0" index="0" disallow="tram rail_urban rail rail_electric rail_fast ship" speed="8.33" length="11.20" shape="4893.35,2448.31 4903.96,2444.74"/>
        <lane id=":1489245550_0_1" index="1" disallow="tram rail_urban rail rail_electric rail_fast ship" speed="8.33" length="11.20" shape="4892.32,2445.28 4902.94,2441.71"/>
    </edge>
    <edge id=":1489245550_2" function="internal">
        <lane id=":1489245550_2_0" index="0" disallow="tram rail_urban rail rail_electric rail_fast ship" speed="6.36" length="9.04" shape="4896.09,2437.99 4897.06,2440.30 4898.52,2441.69 4900.48,2442.16 4902.94,2441.71"/>
    </edge>
    <edge id=":2376143186_0" function="internal">
        <lane id=":2376143186_0_0" index="0" disallow="tram rail_urban rail rail_electric rail_fast ship" speed="8.33" length="11.20" shape="4493.09,2586.66 4500.31,2578.10"/>
        <lane id=":2376143186_0_1" index="1" disallow="tram rail_urban rail rail_electric rail_fast ship" speed="8.33" length="11.20" shape="4490.64,2584.60 4497.86,2576.04"/>
    </edge>
    <edge id=":2376143186_2" function="internal">
        <lane id=":2376143186_2_0" index="0" disallow="pedestrian tram rail_urban rail rail_electric rail_fast ship" speed="5.91" length="10.56" shape="4490.64,2584.60 4492.78,2581.53 4493.36,2579.23 4492.37,2577.71 4489.83,2576.97"/>
    </edge>
    <edge id=":2383668109_0" function="internal">
        <lane id=":2383668109_0_0" index="0" disallow="tram rail_urban rail rail_electric rail_fast ship" speed="8.33" length="8.36" shape="4300.99,1878.43 4303.10,1877.09 4304.57,1876.09 4306.14,1875.49 4308.54,1875.33"/>
    </edge>
    <edge id=":2383668109_1" function="internal">
        <lane id=":2383668109_1_0" index="0" disallow="tram rail_urban rail rail_electric rail_fast ship" speed="8.33" length="8.32" shape="4300.16,1874.58 4308.54,1875.33"/>
        <lane id=":2383668109_1_1" index="1" disallow="tram rail_urban rail rail_electric rail_fast ship" speed="8.33" length="8.32" shape="4300.43,1871.39 4308.62,1872.13"/>
    </edge>
    <edge id=":2383668112_0" function="internal">
        <lane id=":2383668112_0_0" index="0" disallow="tram rail_urban rail rail_electric rail_fast ship" speed="8.33" length="9.80" shape="4281.97,1878.15 4279.63,1887.65"/>
        <lane id=":2383668112_0_1" index="1" disallow="tram rail_urban rail rail_electric rail_fast ship" speed="8.33" length="9.80" shape="4285.08,1878.91 4282.73,1888.45"/>
    </edge>
    <edge id=":2383668112_2" function="internal">
        <lane id=":2383668112_2_0" index="0" disallow="tram rail_urban rail rail_electric rail_fast ship" speed="8.33" length="8.12" shape="4285.83,1889.25 4286.45,1887.89 4287.60,1886.52 4289.31,1885.14 4291.55,1883.73"/>
    </edge>
    <edge id=":2383668112_3" function="internal">
        <lane id=":2383668112_3_0" index="0" disallow="tram rail_urban rail rail_electric rail_fast ship" speed="8.33" length="9.86" shape="4285.83,1889.25 4288.19,1879.68"/>
    </edge>
    <edge id=":2383668112_4" function="internal">
        <lane id=":2383668112_4_0" index="0" disallow="tram rail_urban rail rail_electric rail_fast ship" speed="8.33" length="9.04" shape="4277.33,1879.27 4278.77,1881.28 4279.63,1883.35 4279.91,1885.47 4279.63,1887.65"/>
    </edge>
    <edge id=":2413927007_0" function="internal">
        <lane id=":2413927007_0_0" index="0" disallow="tram rail_urban rail rail_electric rail_fast ship" speed="3.65" length="4.67" shape="4436.12,1842.28 4437.52,1842.61 4438.38,1842.36 4438.69,1841.52 4438.46,1840.10"/>
    </edge>
    <edge id=":26165090_0" function="internal">
        <lane id=":26165090_0_0" index="0" disallow="tram rail_urban rail rail_electric rail_fast ship" speed="6.51" length="9.03" shape="4386.02,2051.88 4383.58,2052.28 4381.59,2051.81 4380.07,2050.45 4379.00,2048.22"/>
    </edge>
    <edge id=":26165090_1" function="internal">
        <lane id=":26165090_1_0" index="0" disallow="tram rail_urban rail rail_electric rail_fast ship" speed="7.34" length="11.77" shape="4386.02,2051.88 4382.45,2053.37 4380.15,2055.21 4379.10,2057.39 4379.32,2059.92"/>
    </edge>
    <edge id=":26165090_2" function="internal">
        <lane id=":26165090_2_0" index="0" disallow="tram rail_urban rail rail_electric rail_fast ship" speed="8.33" length="11.83" shape="4382.37,2058.96 4380.98,2056.21 4379.26,2054.38 4377.48,2052.39 4375.95,2049.18"/>
    </edge>
    <edge id=":26165090_3" function="internal">
        <lane id=":26165090_3_0" index="0" disallow="tram rail_urban rail rail_electric rail_fast ship" speed="6.47" length="9.03" shape="4372.29,2056.34 4374.73,2055.89 4376.72,2056.34 4378.25,2057.68 4379.32,2059.92"/>
    </edge>
    <edge id=":26165090_4" function="internal">
        <lane id=":26165090_4_0" index="0" disallow="tram rail_urban rail rail_electric rail_fast ship" speed="6.58" length="9.13" shape="4372.29,2056.34 4374.52,2055.22 4375.88,2053.65 4376.35,2051.64 4375.95,2049.18"/>
    </edge>
    <edge id=":26165126_0" function="internal">
        <lane id=":26165126_0_0" index="0" disallow="tram rail_urban rail rail_electric rail_fast ship" speed="6.13" length="9.42" shape="4302.88,2303.01 4301.89,2300.74 4302.11,2298.82 4303.52,2297.23 4306.13,2296.00"/>
    </edge>
    <edge id=":26165126_1" function="internal">
        <lane id=":26165126_1_0" index="0" disallow="tram rail_urban rail rail_electric rail_fast ship" speed="8.33" length="11.64" shape="4302.88,2303.01 4301.33,2300.22 4300.52,2297.77 4300.12,2295.19 4299.76,2291.96"/>
    </edge>
    <edge id=":26165126_2" function="internal">