<?xml version="1.0" encoding="UTF-8"?>

<configuration xmlns:xsi="http://www.w3.org/2001/XMLSchema-instance" xsi:noNamespaceSchemaLocation="http://sumo.dlr.de/xsd/sumoConfiguration.xsd">

    <input>
        <net-file value="selected1km.net.xml"/>
		<additional-files value="vtypes.add.xml,selected1km.rou.xml"/>
    </input>

	
    <time>
        <begin value=""/>
        <end value=""/>
        <step-length value="1"/>
    </time>

	<output>
		<device.rerouting.probability value="1"/>
		<device.rerouting.threads value="8"/>
	</output>

</configuration>
