<?xml version="1.0" encoding="UTF-8"?>

<!-- generated on 2022-01-03 20:45:58 by Eclipse SUMO netedit Version 1.10.0
<configuration xmlns:xsi="http://www.w3.org/2001/XMLSchema-instance" xsi:noNamespaceSchemaLocation="http://sumo.dlr.de/xsd/netconvertConfiguration.xsd">

    <input>
        <sumo-net-file value="dublin.net.xml"/>
    </input>

    <output>
        <output-file value="dublin.net.xml"/>
        <output.street-names value="true"/>
    </output>

    <processing>
        <geometry.min-radius.fix.railways value="false"/>
        <geometry.max-grade.fix value="false"/>
        <offset.disable-normalization value="true"/>
        <lefthand value="true"/>
    </processing>

    <junctions>
        <no-turnarounds value="true"/>
        <junctions.corner-detail value="5"/>
        <junctions.limit-turn-speed value="5.5"/>
        <rectangular-lane-cut value="false"/>
    </junctions>

    <pedestrian>
        <walkingareas value="false"/>
    </pedestrian>

    <report>
        <aggregate-warnings value="5"/>
    </report>

</configuration>
-->

<net version="1.9" junctionCornerDetail="5" lefthand="true" limitTurnSpeed="5.50" xmlns:xsi="http://www.w3.org/2001/XMLSchema-instance" xsi:noNamespaceSchemaLocation="http://sumo.dlr.de/xsd/net_file.xsd">

    <location netOffset="-677749.85,-5911444.78" convBoundary="3784.08,934.94,6362.32,1916.74" origBoundary="-6.368224,53.318846,-6.186539,53.396212" projParameter="+proj=utm +zone=29 +ellps=WGS84 +datum=WGS84 +units=m +no_defs"/>

    <type id="highway.bridleway" priority="1" numLanes="1" speed="2.78" allow="pedestrian" oneway="1" width="2.00"/>
    <type id="highway.bus_guideway" priority="1" numLanes="1" speed="27.78" allow="bus" oneway="1"/>
    <type id="highway.cycleway" priority="1" numLanes="1" speed="8.33" allow="bicycle" oneway="1" width="1.00"/>
    <type id="highway.footway" priority="1" numLanes="1" speed="2.78" allow="pedestrian" oneway="1" width="2.00"/>
    <type id="highway.ford" priority="1" numLanes="1" speed="2.78" allow="army" oneway="1"/>
    <type id="highway.living_street" priority="2" numLanes="1" speed="2.78" disallow="tram rail_urban rail rail_electric ship" oneway="1"/>
    <type id="highway.motorway" priority="14" numLanes="2" speed="39.44" allow="private emergency authority army vip passenger hov taxi bus coach delivery truck trailer motorcycle evehicle custom1 custom2" oneway="1"/>
    <type id="highway.motorway_link" priority="9" numLanes="1" speed="22.22" allow="private emergency authority army vip passenger hov taxi bus coach delivery truck trailer motorcycle evehicle custom1 custom2" oneway="1"/>
    <type id="highway.path" priority="1" numLanes="1" speed="2.78" allow="pedestrian bicycle" oneway="1" width="2.00"/>
    <type id="highway.pedestrian" priority="1" numLanes="1" speed="2.78" allow="pedestrian" oneway="1" width="2.00"/>
    <type id="highway.primary" priority="12" numLanes="2" speed="27.78" disallow="tram rail_urban rail rail_electric ship" oneway="1"/>
    <type id="highway.primary_link" priority="7" numLanes="1" speed="22.22" disallow="tram rail_urban rail rail_electric ship" oneway="1"/>
    <type id="highway.raceway" priority="15" numLanes="2" speed="83.33" allow="vip" oneway="1"/>
    <type id="highway.residential" priority="3" numLanes="1" speed="13.89" disallow="tram rail_urban rail rail_electric ship" oneway="1"/>
    <type id="highway.secondary" priority="11" numLanes="2" speed="27.78" disallow="tram rail_urban rail rail_electric ship" oneway="1"/>
    <type id="highway.secondary_link" priority="6" numLanes="1" speed="22.22" disallow="tram rail_urban rail rail_electric ship" oneway="1"/>
    <type id="highway.service" priority="1" numLanes="1" speed="5.56" allow="pedestrian delivery bicycle" oneway="1"/>
    <type id="highway.stairs" priority="1" numLanes="1" speed="1.39" allow="pedestrian" oneway="1" width="2.00"/>
    <type id="highway.step" priority="1" numLanes="1" speed="1.39" allow="pedestrian" oneway="1" width="2.00"/>
    <type id="highway.steps" priority="1" numLanes="1" speed="1.39" allow="pedestrian" oneway="1" width="2.00"/>
    <type id="highway.tertiary" priority="10" numLanes="1" speed="22.22" disallow="tram rail_urban rail rail_electric ship" oneway="1"/>
    <type id="highway.tertiary_link" priority="5" numLanes="1" speed="22.22" disallow="tram rail_urban rail rail_electric ship" oneway="1"/>
    <type id="highway.track" priority="1" numLanes="1" speed="5.56" disallow="tram rail_urban rail rail_electric ship" oneway="1"/>
    <type id="highway.trunk" priority="13" numLanes="2" speed="27.78" disallow="pedestrian bicycle tram rail_urban rail rail_electric ship" oneway="1"/>
    <type id="highway.trunk_link" priority="8" numLanes="1" speed="22.22" disallow="pedestrian bicycle tram rail_urban rail rail_electric ship" oneway="1"/>
    <type id="highway.unclassified" priority="4" numLanes="1" speed="13.89" disallow="tram rail_urban rail rail_electric ship" oneway="1"/>
    <type id="highway.unsurfaced" priority="1" numLanes="1" speed="8.33" disallow="tram rail_urban rail rail_electric ship" oneway="1"/>
    <type id="railway.light_rail" priority="19" numLanes="1" speed="27.78" allow="rail_urban" oneway="1"/>
    <type id="railway.preserved" priority="16" numLanes="1" speed="27.78" allow="rail" oneway="1"/>
    <type id="railway.rail" priority="20" numLanes="1" speed="83.33" allow="rail rail_electric" oneway="1"/>
    <type id="railway.subway" priority="18" numLanes="1" speed="27.78" allow="rail_urban" oneway="1"/>
    <type id="railway.tram" priority="17" numLanes="1" speed="13.89" allow="tram" oneway="1"/>

    <edge id=":29396438_0" function="internal">
        <lane id=":29396438_0_0" index="0" disallow="tram rail_urban rail rail_electric rail_fast ship" speed="7.10" length="10.22" shape="4432.91,1017.44 4430.23,1016.98 4428.26,1015.76 4427.00,1013.77 4426.44,1011.01"/>
    </edge>
    <edge id=":29396438_1" function="internal">
        <lane id=":29396438_1_0" index="0" disallow="tram rail_urban rail rail_electric rail_fast ship" speed="13.89" length="18.25" shape="4432.91,1017.44 4414.67,1016.99"/>
    </edge>
    <edge id=":29396438_2" function="internal">
        <lane id=":29396438_2_0" index="0" disallow="tram rail_urban rail rail_electric rail_fast ship" speed="8.50" length="7.74" shape="4432.91,1017.44 4427.48,1017.91 4425.39,1018.86"/>
    </edge>
    <edge id=":29396438_10" function="internal">
        <lane id=":29396438_10_0" index="0" disallow="tram rail_urban rail rail_electric rail_fast ship" speed="8.50" length="9.69" shape="4425.39,1018.86 4423.71,1019.62 4421.60,1022.57 4421.15,1026.77"/>
    </edge>
    <edge id=":29396438_3" function="internal">
        <lane id=":29396438_3_0" index="0" disallow="tram rail_urban rail rail_electric rail_fast ship" speed="6.29" length="9.05" shape="4427.53,1026.26 4427.69,1023.75 4428.63,1021.98 4430.35,1020.94 4432.85,1020.64"/>
    </edge>
    <edge id=":29396438_4" function="internal">
        <lane id=":29396438_4_0" index="0" disallow="tram rail_urban rail rail_electric rail_fast ship" speed="11.11" length="15.32" shape="4427.53,1026.26 4426.44,1011.01"/>
        <lane id=":29396438_4_1" index="1" disallow="tram rail_urban rail rail_electric rail_fast ship" speed="11.11" length="15.32" shape="4424.34,1026.52 4423.25,1011.21"/>
    </edge>
    <edge id=":29396438_6" function="internal">
        <lane id=":29396438_6_0" index="0" disallow="tram rail_urban rail rail_electric rail_fast ship" speed="7.20" length="10.37" shape="4414.57,1020.19 4417.26,1020.67 4419.26,1021.92 4420.55,1023.96 4421.15,1026.77"/>
    </edge>
    <edge id=":29396438_7" function="internal">
        <lane id=":29396438_7_0" index="0" disallow="tram rail_urban rail rail_electric rail_fast ship" speed="13.89" length="18.28" shape="4414.57,1020.19 4432.85,1020.64"/>
    </edge>
    <edge id=":29396438_8" function="internal">
        <lane id=":29396438_8_0" index="0" disallow="tram rail_urban rail rail_electric rail_fast ship" speed="6.31" length="9.04" shape="4420.05,1011.42 4419.86,1013.92 4418.89,1015.68 4417.16,1016.71 4414.67,1016.99"/>
    </edge>
    <edge id=":29396438_9" function="internal">
        <lane id=":29396438_9_0" index="0" disallow="tram rail_urban rail rail_electric rail_fast ship" speed="11.11" length="15.39" shape="4420.05,1011.42 4421.15,1026.77"/>
    </edge>
    <edge id=":29400040_0" function="internal">
        <lane id=":29400040_0_0" index="0" disallow="tram rail_urban rail rail_electric rail_fast ship" speed="7.19" length="9.01" shape="4704.43,1063.20 4702.78,1064.94 4700.90,1065.91 4698.80,1066.11 4696.47,1065.56"/>
    </edge>
    <edge id=":29400040_1" function="internal">
        <lane id=":29400040_1_0" index="0" disallow="tram rail_urban rail rail_electric rail_fast ship" speed="13.89" length="17.08" shape="4707.02,1065.09 4696.98,1078.90"/>
    </edge>
    <edge id=":29400040_2" function="internal">
        <lane id=":29400040_2_0" index="0" disallow="tram rail_urban rail rail_electric rail_fast ship" speed="6.11" length="9.20" shape="4714.07,1076.22 4711.88,1074.87 4710.84,1073.20 4710.94,1071.19 4712.19,1068.85"/>
    </edge>
    <edge id=":29400040_3" function="internal">
        <lane id=":29400040_3_0" index="0" disallow="tram rail_urban rail rail_electric rail_fast ship" speed="13.89" length="20.25" shape="4714.07,1076.22 4695.33,1068.55"/>
    </edge>
    <edge id=":29400040_4" function="internal">
        <lane id=":29400040_4_0" index="0" disallow="tram rail_urban rail rail_electric rail_fast ship" speed="8.15" length="12.24" shape="4702.16,1082.66 4704.49,1080.14 4707.05,1078.71 4709.82,1078.39 4712.81,1079.16"/>
    </edge>
    <edge id=":29400040_5" function="internal">
        <lane id=":29400040_5_0" index="0" disallow="tram rail_urban rail rail_electric rail_fast ship" speed="13.89" length="17.07" shape="4702.16,1082.66 4712.19,1068.85"/>
        <lane id=":29400040_5_1" index="1" disallow="tram rail_urban rail rail_electric rail_fast ship" speed="13.89" length="17.07" shape="4699.57,1080.78 4709.60,1066.97"/>
    </edge>
    <edge id=":29400040_7" function="internal">
        <lane id=":29400040_7_0" index="0" disallow="tram rail_urban rail rail_electric rail_fast ship" speed="6.18" length="9.63" shape="4694.18,1071.53 4696.74,1072.91 4698.06,1074.60 4698.14,1076.59 4696.98,1078.90"/>
    </edge>
    <edge id=":29400040_8" function="internal">
        <lane id=":29400040_8_0" index="0" disallow="tram rail_urban rail rail_electric rail_fast ship" speed="13.89" length="20.13" shape="4694.18,1071.53 4712.81,1079.16"/>
    </edge>
    <edge id=":32335036_0" function="internal">
        <lane id=":32335036_0_0" index="0" disallow="tram rail_urban rail rail_electric rail_fast ship" speed="6.67" length="10.23" shape="6138.37,1764.88 6136.98,1766.98 6135.08,1767.98 6132.68,1767.90 6129.76,1766.72"/>
    </edge>
    <edge id=":32335036_1" function="internal">
        <lane id=":32335036_1_0" index="0" disallow="tram rail_urban rail rail_electric rail_fast ship" speed="13.89" length="22.14" shape="6138.37,1764.88 6135.81,1770.50 6133.47,1774.44 6130.55,1777.98 6126.25,1782.44"/>
        <lane id=":32335036_1_1" index="1" disallow="tram rail_urban rail rail_electric rail_fast ship" speed="13.89" length="22.14" shape="6141.31,1766.13 6138.65,1771.91 6136.08,1776.19 6132.93,1780.08 6128.52,1784.69"/>
    </edge>
    <edge id=":32335036_3" function="internal">
        <lane id=":32335036_3_0" index="0" disallow="tram rail_urban rail rail_electric rail_fast ship" speed="9.74" length="7.00" shape="6141.31,1766.13 6139.77,1771.49 6139.86,1772.91"/>
    </edge>
    <edge id=":32335036_15" function="internal">
        <lane id=":32335036_15_0" index="0" disallow="tram rail_urban rail rail_electric rail_fast ship" speed="9.74" length="12.62" shape="6139.86,1772.91 6140.05,1776.11 6142.15,1779.98 6146.07,1783.12"/>
    </edge>
    <edge id=":32335036_4" function="internal">
        <lane id=":32335036_4_0" index="0" disallow="tram rail_urban rail rail_electric rail_fast ship" speed="7.16" length="10.16" shape="6149.25,1777.56 6147.35,1776.00 6146.38,1773.99 6146.33,1771.54 6147.20,1768.64"/>
    </edge>
    <edge id=":32335036_5" function="internal">
        <lane id=":32335036_5_0" index="0" disallow="tram rail_urban rail rail_electric rail_fast ship" speed="13.89" length="22.27" shape="6149.25,1777.56 6129.76,1766.72"/>
        <lane id=":32335036_5_1" index="1" disallow="tram rail_urban rail rail_electric rail_fast ship" speed="13.89" length="22.27" shape="6147.66,1780.34 6128.23,1769.53"/>
    </edge>
    <edge id=":32335036_7" function="internal">
        <lane id=":32335036_7_0" index="0" disallow="tram rail_urban rail rail_electric rail_fast ship" speed="10.76" length="6.70" shape="6147.66,1780.34 6142.91,1778.58 6141.28,1778.62"/>
    </edge>
    <edge id=":32335036_16" function="internal">
        <lane id=":32335036_16_0" index="0" disallow="tram rail_urban rail rail_electric rail_fast ship" speed="10.76" length="14.58" shape="6141.28,1778.62 6138.13,1778.71 6133.34,1780.75 6128.52,1784.69"/>
    </edge>
    <edge id=":32335036_8" function="internal">
        <lane id=":32335036_8_0" index="0" disallow="tram rail_urban rail rail_electric rail_fast ship" speed="8.46" length="12.81" shape="6133.08,1789.18 6136.11,1786.63 6139.02,1785.22 6141.81,1784.98 6144.47,1785.89"/>
    </edge>
    <edge id=":32335036_9" function="internal">
        <lane id=":32335036_9_0" index="0" disallow="tram rail_urban rail rail_electric rail_fast ship" speed="13.89" length="24.52" shape="6133.08,1789.18 6137.69,1784.27 6141.30,1779.69 6144.32,1774.73 6147.20,1768.64"/>
        <lane id=":32335036_9_1" index="1" disallow="tram rail_urban rail rail_electric rail_fast ship" speed="13.89" length="24.52" shape="6130.80,1786.93 6135.31,1782.17 6138.69,1777.94 6141.48,1773.32 6144.25,1767.39"/>
    </edge>
    <edge id=":32335036_11" function="internal">
        <lane id=":32335036_11_0" index="0" disallow="tram rail_urban rail rail_electric rail_fast ship" speed="5.98" length="9.08" shape="6125.17,1775.15 6127.25,1776.70 6128.13,1778.44 6127.79,1780.35 6126.25,1782.44"/>
    </edge>
    <edge id=":32335036_12" function="internal">
        <lane id=":32335036_12_0" index="0" disallow="tram rail_urban rail rail_electric rail_fast ship" speed="13.89" length="22.13" shape="6125.17,1775.15 6144.47,1785.89"/>
        <lane id=":32335036_12_1" index="1" disallow="tram rail_urban rail rail_electric rail_fast ship" speed="13.89" length="22.13" shape="6126.70,1772.34 6146.07,1783.12"/>
    </edge>
    <edge id=":32335036_14" function="internal">
        <lane id=":32335036_14_0" index="0" disallow="tram rail_urban rail rail_electric rail_fast ship" speed="9.36" length="7.71" shape="6126.70,1772.34 6132.49,1774.59 6133.98,1774.56"/>
    </edge>
    <edge id=":32335036_17" function="internal">
        <lane id=":32335036_17_0" index="0" disallow="tram rail_urban rail rail_electric rail_fast ship" speed="9.36" length="13.55" shape="6133.98,1774.56 6137.35,1774.51 6141.27,1772.11 6144.25,1767.39"/>
    </edge>
    <edge id=":32335290_0" function="internal">
        <lane id=":32335290_0_0" index="0" disallow="tram rail_urban rail rail_electric rail_fast ship" speed="9.47" length="15.48" shape="5681.60,1511.08 5677.58,1514.78 5674.05,1517.10 5671.00,1518.04 5668.44,1517.59"/>
    </edge>
    <edge id=":32335290_1" function="internal">
        <lane id=":32335290_1_0" index="0" disallow="tram rail_urban rail rail_electric rail_fast ship" speed="13.89" length="21.34" shape="5683.90,1513.30 5669.12,1528.69"/>
    </edge>
    <edge id=":32335290_2" function="internal">
        <lane id=":32335290_2_0" index="0" disallow="tram rail_urban rail rail_electric rail_fast ship" speed="6.01" length="9.08" shape="5689.59,1525.07 5687.52,1523.51 5686.65,1521.77 5686.97,1519.86 5688.49,1517.76"/>
    </edge>
    <edge id=":32335290_3" function="internal">
        <lane id=":32335290_3_0" index="0" disallow="tram rail_urban rail rail_electric rail_fast ship" speed="13.89" length="22.48" shape="5689.59,1525.07 5683.22,1522.18 5677.41,1520.35 5672.41,1519.01 5668.44,1517.59"/>
    </edge>
    <edge id=":32335290_4" function="internal">
        <lane id=":32335290_4_0" index="0" disallow="tram rail_urban rail rail_electric rail_fast ship" speed="10.57" length="9.36" shape="5688.05,1527.88 5682.39,1525.47 5679.21,1525.04"/>
    </edge>
    <edge id=":32335290_11" function="internal">
        <lane id=":32335290_11_0" index="0" disallow="tram rail_urban rail rail_electric rail_fast ship" speed="10.57" length="11.17" shape="5679.21,1525.04 5677.35,1524.80 5672.93,1525.87 5669.12,1528.69"/>
    </edge>
    <edge id=":32335290_5" function="internal">
        <lane id=":32335290_5_0" index="0" disallow="tram rail_urban rail rail_electric rail_fast ship" speed="8.21" length="12.07" shape="5673.76,1533.10 5675.81,1531.70 5678.36,1531.30 5681.41,1531.89 5684.97,1533.48"/>
    </edge>
    <edge id=":32335290_6" function="internal">
        <lane id=":32335290_6_0" index="0" disallow="tram rail_urban rail rail_electric rail_fast ship" speed="13.89" length="21.29" shape="5673.76,1533.10 5688.49,1517.76"/>
        <lane id=":32335290_6_1" index="1" disallow="tram rail_urban rail rail_electric rail_fast ship" speed="13.89" length="21.29" shape="5671.44,1530.90 5686.19,1515.53"/>
    </edge>
    <edge id=":32335290_8" function="internal">
        <lane id=":32335290_8_0" index="0" disallow="tram rail_urban rail rail_electric rail_fast ship" speed="6.35" length="10.53" shape="5667.03,1520.46 5669.69,1522.22 5670.92,1524.18 5670.73,1526.34 5669.12,1528.69"/>
    </edge>
    <edge id=":32335290_9" function="internal">
        <lane id=":32335290_9_0" index="0" disallow="tram rail_urban rail rail_electric rail_fast ship" speed="13.89" length="22.00" shape="5667.03,1520.46 5686.51,1530.68"/>
    </edge>
    <edge id=":32335290_10" function="internal">
        <lane id=":32335290_10_0" index="0" disallow="tram rail_urban rail rail_electric rail_fast ship" speed="11.04" length="9.34" shape="5667.03,1520.46 5671.88,1521.95 5676.13,1521.67"/>
    </edge>
    <edge id=":32335290_12" function="internal">
        <lane id=":32335290_12_0" index="0" disallow="tram rail_urban rail rail_electric rail_fast ship" speed="11.04" length="11.96" shape="5676.13,1521.67 5676.69,1521.63 5681.46,1519.49 5686.19,1515.53"/>
    </edge>
    <edge id=":32335861_0" function="internal">
        <lane id=":32335861_0_0" index="0" disallow="tram rail_urban rail rail_electric rail_fast ship" speed="13.89" length="0.30" shape="5539.34,1447.73 5539.07,1447.58"/>
    </edge>
    <edge id=":32335861_1" function="internal">
        <lane id=":32335861_1_0" index="0" disallow="tram rail_urban rail rail_electric rail_fast ship" speed="13.89" length="0.30" shape="5537.50,1450.37 5537.77,1450.52"/>
    </edge>
    <edge id=":32335992_0" function="internal">
        <lane id=":32335992_0_0" index="0" disallow="tram rail_urban rail rail_electric rail_fast ship" speed="13.89" length="8.39" shape="4687.32,1062.09 4684.84,1061.69 4683.02,1062.19 4681.20,1062.73 4678.69,1062.41"/>
        <lane id=":32335992_0_1" index="1" disallow="tram rail_urban rail rail_electric rail_fast ship" speed="13.89" length="8.39" shape="4686.18,1065.08 4678.69,1062.41"/>
    </edge>
    <edge id=":32335992_2" function="internal">
        <lane id=":32335992_2_0" index="0" disallow="tram rail_urban rail rail_electric rail_fast ship" speed="13.89" length="7.84" shape="4677.67,1065.45 4685.05,1068.08"/>
    </edge>
    <edge id=":32335995_0" function="internal">
        <lane id=":32335995_0_0" index="0" disallow="tram rail_urban rail rail_electric rail_fast ship" speed="13.89" length="0.31" shape="4482.05,1021.02 4481.74,1020.98"/>
    </edge>
    <edge id=":32335995_1" function="internal">
        <lane id=":32335995_1_0" index="0" disallow="tram rail_urban rail rail_electric rail_fast ship" speed="13.89" length="0.25" shape="4481.32,1024.15 4481.57,1024.18"/>
    </edge>
    <edge id=":32336030_0" function="internal">
        <lane id=":32336030_0_0" index="0" disallow="tram rail_urban rail rail_electric rail_fast ship" speed="13.89" length="0.29" shape="4031.22,969.19 4030.93,969.15"/>
    </edge>
    <edge id=":32336030_1" function="internal">
        <lane id=":32336030_1_0" index="0" disallow="tram rail_urban rail rail_electric rail_fast ship" speed="13.89" length="0.31" shape="4030.45,972.31 4030.76,972.35"/>
    </edge>
    <edge id=":32471781_0" function="internal">
        <lane id=":32471781_0_0" index="0" disallow="tram rail_urban rail rail_electric rail_fast ship" speed="13.89" length="0.27" shape="5998.75,1695.88 5998.53,1695.76"/>
        <lane id=":32471781_0_1" index="1" disallow="tram rail_urban rail rail_electric rail_fast ship" speed="13.89" length="0.27" shape="5997.24,1698.70 5996.99,1698.57"/>
    </edge>
    <edge id=":32471781_2" function="internal">
        <lane id=":32471781_2_0" index="0" disallow="tram rail_urban rail rail_electric rail_fast ship" speed="13.89" length="0.32" shape="5993.91,1704.18 5994.21,1704.34"/>
        <lane id=":32471781_2_1" index="1" disallow="tram rail_urban rail rail_electric rail_fast ship" speed="13.89" length="0.32" shape="5995.45,1701.37 5995.72,1701.52"/>
    </edge>
    <edge id=":32471791_0" function="internal">
        <lane id=":32471791_0_0" index="0" disallow="tram rail_urban rail rail_electric rail_fast ship" speed="13.89" length="14.53" shape="6286.43,1853.09 6273.68,1846.08"/>
        <lane id=":32471791_0_1" index="1" disallow="tram rail_urban rail rail_electric rail_fast ship" speed="13.89" length="14.53" shape="6284.87,1855.88 6272.16,1848.89"/>
    </edge>
    <edge id=":32471791_2" function="internal">
        <lane id=":32471791_2_0" index="0" disallow="tram rail_urban rail rail_electric rail_fast ship" speed="8.75" length="5.24" shape="6284.87,1855.88 6281.19,1854.69 6279.84,1854.94"/>
    </edge>
    <edge id=":32471791_8" function="internal">
        <lane id=":32471791_8_0" index="0" disallow="tram rail_urban rail rail_electric rail_fast ship" speed="8.75" length="11.65" shape="6279.84,1854.94 6277.69,1855.33 6274.36,1857.80 6271.21,1862.09"/>
    </edge>
    <edge id=":32471791_3" function="internal">
        <lane id=":32471791_3_0" index="0" disallow="tram rail_urban rail rail_electric rail_fast ship" speed="6.61" length="9.19" shape="6273.97,1863.71 6275.55,1861.72 6277.37,1860.67 6279.44,1860.59 6281.75,1861.47"/>
    </edge>
    <edge id=":32471791_4" function="internal">
        <lane id=":32471791_4_0" index="0" disallow="tram rail_urban rail rail_electric rail_fast ship" speed="8.61" length="17.05" shape="6273.97,1863.71 6276.17,1858.85 6276.61,1854.76 6275.27,1851.44 6272.16,1848.89"/>
    </edge>
    <edge id=":32471791_5" function="internal">
        <lane id=":32471791_5_0" index="0" disallow="tram rail_urban rail rail_electric rail_fast ship" speed="6.43" length="9.03" shape="6269.11,1854.52 6271.10,1856.00 6272.12,1857.76 6272.16,1859.79 6271.21,1862.09"/>
    </edge>
    <edge id=":32471791_6" function="internal">
        <lane id=":32471791_6_0" index="0" disallow="tram rail_urban rail rail_electric rail_fast ship" speed="13.89" length="14.44" shape="6269.11,1854.52 6281.75,1861.47"/>
        <lane id=":32471791_6_1" index="1" disallow="tram rail_urban rail rail_electric rail_fast ship" speed="13.89" length="14.44" shape="6270.63,1851.71 6283.31,1858.68"/>
    </edge>
    <edge id=":366910936_0" function="internal">
        <lane id=":366910936_0_0" index="0" disallow="tram rail_urban rail rail_electric rail_fast ship" speed="13.89" length="0.20" shape="4724.19,1032.14 4724.10,1032.28"/>
        <lane id=":366910936_0_1" index="1" disallow="tram rail_urban rail rail_electric rail_fast ship" speed="13.89" length="0.20" shape="4726.93,1033.79 4726.80,1033.99"/>
    </edge>
    <edge id=":366910936_2" function="internal">
        <lane id=":366910936_2_0" index="0" disallow="tram rail_urban rail rail_electric rail_fast ship" speed="13.89" length="0.35" shape="4732.21,1037.41 4732.42,1037.08"/>
        <lane id=":366910936_2_1" index="1" disallow="tram rail_urban rail rail_electric rail_fast ship" speed="13.89" length="0.35" shape="4729.51,1035.70 4729.67,1035.44"/>
    </edge>
    <edge id=":3738797769_0" function="internal">
        <lane id=":3738797769_0_0" index="0" disallow="tram rail_urban rail rail_electric rail_fast ship" speed="13.89" length="8.40" shape="6159.27,1727.77 6157.77,1729.78 6156.12,1730.71 6154.47,1731.63 6152.97,1733.65"/>
        <lane id=":3738797769_0_1" index="1" disallow="tram rail_urban rail rail_electric rail_fast ship" speed="13.89" length="8.40" shape="6159.27,1727.77 6155.87,1735.01"/>
    </edge>
    <edge id=":3738797769_2" function="internal">
        <lane id=":3738797769_2_0" index="0" disallow="tram rail_urban rail rail_electric rail_fast ship" speed="13.89" length="8.00" shape="6161.66,1737.73 6165.07,1730.49"/>
        <lane id=":3738797769_2_1" index="1" disallow="tram rail_urban rail rail_electric rail_fast ship" speed="13.89" length="8.00" shape="6158.77,1736.37 6162.17,1729.13"/>
    </edge>
    <edge id=":389678_0" function="internal">
        <lane id=":389678_0_0" index="0" disallow="tram rail_urban rail rail_electric rail_fast ship" speed="11.11" length="0.35" shape="4419.29,1049.64 4419.24,1049.98"/>
    </edge>
    <edge id=":389678_1" function="internal">
        <lane id=":389678_1_0" index="0" disallow="tram rail_urban rail rail_electric rail_fast ship" speed="11.11" length="0.17" shape="4425.60,1050.75 4425.61,1050.63"/>
        <lane id=":389678_1_1" index="1" disallow="tram rail_urban rail rail_electric rail_fast ship" speed="11.11" length="0.17" shape="4422.42,1050.36 4422.45,1050.14"/>
    </edge>
    <edge id=":461626139_0" function="internal">
        <lane id=":461626139_0_0" index="0" disallow="tram rail_urban rail rail_electric rail_fast ship" speed="13.89" length="0.28" shape="5850.87,1614.40 5850.63,1614.27"/>
        <lane id=":461626139_0_1" index="1" disallow="tram rail_urban rail rail_electric rail_fast ship" speed="13.89" length="0.28" shape="5849.31,1617.20 5849.06,1617.05"/>
    </edge>
    <edge id=":461626139_2" function="internal">
        <lane id=":461626139_2_0" index="0" disallow="tram rail_urban rail rail_electric rail_fast ship" speed="13.89" length="0.31" shape="5845.91,1622.62 5846.19,1622.78"/>
        <lane id=":461626139_2_1" index="1" disallow="tram rail_urban rail rail_electric rail_fast ship" speed="13.89" length="0.31" shape="5847.48,1619.84 5847.75,1619.99"/>
    </edge>
    <edge id=":5799372896_0" function="internal">
        <lane id=":5799372896_0_0" index="0" disallow="tram rail_urban rail rail_electric rail_fast ship" speed="13.89" length="8.40" shape="5439.08,1393.51 5437.16,1391.89 5436.34,1390.18 5435.52,1388.48 5433.60,1386.86"/>
        <lane id=":5799372896_0_1" index="1" disallow="tram rail_urban rail rail_electric rail_fast ship" speed="13.89" length="8.40" shape="5439.08,1393.51 5432.06,1389.66"/>
    </edge>
    <edge id=":5799372896_2" function="internal">
        <lane id=":5799372896_2_0" index="0" disallow="tram rail_urban rail rail_electric rail_fast ship" speed="13.89" length="8.40" shape="5428.98,1395.28 5431.38,1396.02 5433.26,1395.80 5435.14,1395.57 5437.54,1396.32"/>
        <lane id=":5799372896_2_1" index="1" disallow="tram rail_urban rail rail_electric rail_fast ship" speed="13.89" length="8.40" shape="5430.52,1392.47 5437.54,1396.32"/>
    </edge>
    <edge id=":59702517_0" function="internal">
        <lane id=":59702517_0_0" index="0" disallow="tram rail_urban rail rail_electric rail_fast ship" speed="13.89" length="0.25" shape="4781.47,1105.04 4781.24,1104.94"/>
    </edge>
    <edge id=":59702517_1" function="internal">
        <lane id=":59702517_1_0" index="0" disallow="tram rail_urban rail rail_electric rail_fast ship" speed="13.89" length="0.31" shape="4779.98,1107.89 4780.27,1108.01"/>
    </edge>
    <edge id=":9100868_0" function="internal">
        <lane id=":9100868_0_0" index="0" disallow="tram rail_urban rail rail_electric rail_fast ship" speed="9.47" length="17.68" shape="5187.35,1254.51 5184.78,1259.72 5181.87,1263.22 5178.61,1265.00 5175.01,1265.06"/>
    </edge>
    <edge id=":9100868_1" function="internal">
        <lane id=":9100868_1_0" index="0" disallow="tram rail_urban rail rail_electric rail_fast ship" speed="13.89" length="22.17" shape="5187.35,1254.51 5184.91,1260.86 5183.19,1265.38 5181.38,1269.61 5178.66,1275.11"/>
        <lane id=":9100868_1_1" index="1" disallow="tram rail_urban rail rail_electric rail_fast ship" speed="13.89" length="22.17" shape="5190.13,1256.19 5187.71,1262.48 5186.01,1266.92 5184.22,1271.11 5181.50,1276.59"/>
        <lane id=":9100868_1_2" index="2" disallow="tram rail_urban rail rail_electric rail_fast ship" speed="13.89" length="22.17" shape="5192.90,1257.88 5190.07,1263.86 5187.42,1267.73 5184.66,1271.35 5181.50,1276.59"/>
    </edge>
    <edge id=":9100868_4" function="internal">
        <lane id=":9100868_4_0" index="0" disallow="tram rail_urban rail rail_electric rail_fast ship" speed="13.89" length="28.27" shape="5202.90,1269.44 5195.23,1267.57 5187.23,1266.45 5180.10,1265.74 5175.01,1265.06"/>
    </edge>
    <edge id=":9100868_5" function="internal">
        <lane id=":9100868_5_0" index="0" disallow="tram rail_urban rail rail_electric rail_fast ship" speed="10.64" length="11.28" shape="5201.89,1272.47 5194.78,1270.79 5190.81,1270.87"/>
    </edge>
    <edge id=":9100868_12" function="internal">
        <lane id=":9100868_12_0" index="0" disallow="tram rail_urban rail rail_electric rail_fast ship" speed="10.64" length="11.48" shape="5190.81,1270.87 5189.01,1270.91 5184.58,1272.84 5181.50,1276.59"/>
    </edge>
    <edge id=":9100868_6" function="internal">