<?xml version="1.0" encoding="UTF-8"?>

<configuration xmlns:xsi="http://www.w3.org/2001/XMLSchema-instance" xsi:noNamespaceSchemaLocation="http://sumo.dlr.de/xsd/sumoConfiguration.xsd">

    <input>
        <net-file value="dublin.net.xml"/>
		<additional-files value="vtypes.add.xml, dublin_clip.rou.xml"/>
    </input>

	
    <time>
        <begin value=""/>
        <end value=""/> # 651 arrived all
        <step-length value="1"/>
    </time>

</configuration>